<?xml version="1.0" encoding="UTF-8"?>

<!-- generated on 2022-01-24 02:39:03 by Eclipse SUMO polyconvert Version v1_10_0+0626-dea525ad83
<configuration xmlns:xsi="http://www.w3.org/2001/XMLSchema-instance" xsi:noNamespaceSchemaLocation="http://sumo.dlr.de/xsd/polyconvertConfiguration.xsd">

    <input>
        <net-file value="osm.net.xml"/>
        <osm-files value="osm_bbox.osm.xml"/>
        <osm.keep-full-type value="true"/>
        <type-file value="/Users/corinnajiang/sumo/data/typemap/osmPolyconvert.typ.xml"/>
    </input>

    <output>
        <output-file value="osm.poly.xml"/>
    </output>

    <processing>
        <poi-layer-offset value="5"/>
    </processing>

    <report>
        <verbose value="true"/>
    </report>

</configuration>
-->

<additional xmlns:xsi="http://www.w3.org/2001/XMLSchema-instance" xsi:noNamespaceSchemaLocation="http://sumo.dlr.de/xsd/additional_file.xsd">
    <location netOffset="-359639.35,-147574.47" convBoundary="-10919.98,-5096.88,9847.95,12870.49" origBoundary="103.640229,1.288762,103.826885,1.451229" projParameter="+proj=utm +zone=48 +ellps=WGS84 +datum=WGS84 +units=m +no_defs"/>

    <poly id="108729617" type="building.residential" color="255,230,230" fill="1" layer="-1.00" shape="221.937119,468.742114 221.927412,471.506058 214.394265,471.421483 213.271067,472.682416 213.049205,474.009220 213.016528,475.380151 213.684863,476.750721 215.076108,477.424407 215.067753,482.819620 225.416043,482.836414 225.424563,477.761818 228.618069,477.771232 228.609556,482.856884 238.980094,482.862611 238.988954,478.451360 240.212581,477.743163 240.846256,476.626207 240.956750,475.111512 240.733309,473.364817 240.131969,472.447499 238.907599,471.707392 232.142227,471.622422 232.163010,468.758971 238.972851,468.766528 240.218721,468.036208 240.819117,467.118272 241.074150,465.382388 240.984349,463.856740 240.360653,462.740429 239.147421,462.022428 239.189658,457.600105 228.819062,457.483819 228.766039,462.569494 225.572515,462.526912 225.636676,457.463343 215.277207,457.347053 215.213216,462.742294 213.822654,463.395298 213.133467,464.755510 213.156426,466.126412 213.357403,467.464055 214.459647,468.734900 221.937119,468.742114"/>
    <poly id="108729618" type="building.residential" color="255,230,230" fill="1" layer="-1.00" shape="129.793246,382.853067 137.148272,382.760842 137.171526,384.706643 144.860368,384.614246 144.988550,395.868942 141.928591,395.903681 141.963569,399.010331 144.945644,398.986687 145.073611,409.821264 152.528786,409.740043 152.563600,412.526076 154.577609,412.502929 154.623874,415.919134 160.387722,415.849838 160.375726,414.158313 162.823695,414.134944 162.788768,411.127796 173.493059,411.000682 173.539516,414.792783 184.978201,414.665292 185.024613,418.368947 186.671425,418.345989 186.706124,420.910906 192.036012,420.841833 192.012888,419.150315 194.494233,419.115873 194.470673,416.573061 217.893209,416.196188 217.916775,418.750056 220.231684,419.633327 224.035772,416.889546 222.465698,414.668145 220.974655,414.668911 220.614042,405.824493 222.550161,405.801387 222.515525,403.358083 220.457007,403.381251 220.340823,393.818083 222.054398,393.795092 221.984444,387.581793 226.788850,382.637404 225.196874,381.101471 232.425746,373.701459 237.903035,378.983297 239.482266,377.368346 244.536512,382.241339 235.138968,391.842559 235.741269,416.297578 233.427802,418.222468 224.703977,418.005834 226.496709,420.448235 226.720433,422.747717 222.093467,426.531161 221.125289,426.310544 220.826150,428.831410 219.035650,430.733919 194.678187,430.635876 194.677534,429.364464 174.092196,429.286596 174.082944,432.935000 170.566748,432.925751 170.585832,426.756629 161.728575,426.728014 161.727683,424.992260 139.940601,424.903956 138.226383,423.677648 137.578086,417.995322 134.942278,420.594780 129.442617,415.091839 132.445435,412.127352 130.163191,409.851039 129.793246,382.853067"/>
    <poly id="108729619" type="building.residential" color="255,230,230" fill="1" layer="-1.00" shape="127.978830,359.869078 125.728207,354.165463 128.942976,352.240109 126.993929,348.758547 135.348432,344.829460 132.886654,339.634519 136.246191,337.930206 138.930547,343.191368 157.363695,334.215680 154.824033,329.031834 157.805472,327.769947 160.567452,332.511448 169.289073,328.427394 179.591709,326.199897 179.210376,320.340542 183.015954,320.493368 183.096848,326.341822 198.096531,326.787406 210.103642,328.483828 224.215311,333.142111 232.941387,337.736826 235.999155,333.434568 238.915505,335.434162 236.158205,339.802600 244.362256,346.254949 251.899089,353.514711 255.112978,349.875718 257.495337,352.096701 254.214872,356.100568 259.225033,361.802765 256.834175,364.700600 258.771600,367.220317 254.601074,371.445756 248.333386,365.445699 244.752261,369.007491 239.519969,364.112478 241.910946,361.446814 231.156987,351.524267 228.999641,354.112422 222.209583,349.295599 224.444439,345.966669 212.724882,340.853872 211.458137,344.270750 198.916309,341.380582 199.515122,337.378091 187.953900,337.240303 187.800475,341.828521 179.377233,341.910237 178.774423,338.129478 167.660377,342.059979 169.375793,345.619052 162.289488,348.961530 160.351415,345.181457 145.655936,352.076742 147.594469,356.752332 140.586050,360.083716 138.269158,355.341986 127.978830,359.869078"/>
    <poly id="108729620" type="building.residential" color="255,230,230" fill="1" layer="-1.00" shape="154.035506,461.889276 154.025800,464.653221 146.492645,464.557592 145.369447,465.818525 145.147591,467.156386 145.114914,468.527317 145.783250,469.897887 147.174489,470.560517 147.166142,475.966787 157.514434,475.983578 157.522953,470.908981 160.716455,470.907340 160.707942,475.992992 171.078489,476.009773 171.087342,471.587465 172.310975,470.890324 172.944650,469.773367 173.055143,468.258671 172.831702,466.511976 172.230357,465.583602 171.005986,464.843496 164.240618,464.769583 164.261395,461.895075 171.071237,461.902631 172.317112,461.183366 172.917509,460.265430 173.172542,458.529545 173.082740,457.003897 172.459044,455.887586 171.245806,455.158529 171.288047,450.747261 160.917448,450.630978 160.864421,455.705598 157.670902,455.674072 157.735056,450.599446 147.375584,450.483158 147.311600,455.889456 145.921032,456.531405 145.231851,457.902674 145.254810,459.273576 145.455782,460.600163 146.558032,461.882065 154.035506,461.889276"/>
    <poly id="108729688" type="leisure.pitch" color="207,245,201" fill="1" layer="-2.00" shape="246.125535,507.999724 245.218773,410.731666 305.796458,413.243386 304.026291,454.747586 318.949359,457.702865 318.086591,511.069419 246.125535,507.999724"/>
    <poly id="108729688#1" type="sport.soccer" color="79,230,125" fill="1" layer="-2.00" shape="246.125535,507.999724 245.218773,410.731666 305.796458,413.243386 304.026291,454.747586 318.949359,457.702865 318.086591,511.069419 246.125535,507.999724"/>
    <poly id="108729689" type="landuse.residential" color="235,235,227" fill="1" layer="-3.00" shape="413.570634,709.415783 413.833148,678.934952 414.401513,658.990091 422.527690,643.839542 449.765629,619.502909 474.204527,604.907832 515.447949,660.209603 515.004838,664.057229 514.850732,667.318753 513.061547,671.775136 458.754507,702.504834 427.045482,709.121408 413.570634,709.415783"/>
    <poly id="108755866" type="building.residential" color="255,230,230" fill="1" layer="-1.00" shape="369.591079,678.073230 369.559686,681.942759 363.239432,681.901785 363.250156,681.116821 360.045515,681.085301 360.034797,681.881320 353.692288,681.840358 353.723686,677.981885 346.301836,677.930422 346.281566,681.788889 330.759103,681.675257 330.790335,677.496167 323.880335,677.444441 323.849108,681.634587 315.915402,681.572332 315.843072,692.384894 321.695986,692.426107 321.685604,693.874416 325.991835,693.905369 325.950322,699.731771 328.743253,699.752446 328.784766,693.926044 332.657032,693.946165 332.667414,692.497856 345.118766,692.590955 345.108412,694.094543 349.269985,694.114514 349.228358,699.719801 351.798745,699.740591 351.840372,694.135304 355.423331,694.155574 355.433691,692.663042 367.350933,692.745361 367.340703,694.492175 373.360523,694.533303 373.329381,698.889284 377.246161,698.920438 377.277303,694.564457 381.383245,694.595514 381.393468,692.837644 393.021403,692.920113 393.011202,694.722206 398.285495,694.752662 398.255075,700.512722 400.669681,700.533593 400.711229,694.773527 404.739280,694.804624 404.749481,693.002531 410.257445,693.032868 410.329778,682.220309 402.863422,682.168868 402.894945,678.553622 395.406334,678.502192 395.374810,682.117437 379.663194,682.014955 379.694581,678.134371 369.591079,678.073230"/>
    <poly id="108755867" type="building.residential" color="255,230,230" fill="1" layer="-1.00" shape="327.960647,562.661537 329.596387,562.749143 329.695662,561.057562 335.226027,561.364282 334.961423,566.129446 341.960614,566.512801 342.181107,562.521562 348.267846,562.861164 348.179647,564.453237 352.241184,564.683321 352.340386,562.848016 357.347756,563.121837 357.028004,568.837824 364.772738,569.265020 365.081550,563.913879 373.059960,564.352011 374.585501,566.529210 382.093384,560.765309 384.776803,564.213324 393.285734,557.675007 390.580049,554.204891 403.215537,544.502512 405.988025,548.049983 411.504928,543.812800 408.565414,540.033243 413.959969,535.895624 407.746904,527.905508 404.054141,530.748731 403.096574,529.522034 398.970017,532.686097 395.329025,528.000329 393.516005,529.383229 397.190396,534.102146 394.576538,536.104579 395.656583,537.485993 386.179962,544.754486 384.910630,543.129942 381.173183,545.630461 380.416081,544.746390 378.935747,543.929025 377.166554,543.985212 375.765081,545.058339 375.265227,546.750126 376.000501,548.463389 376.779874,549.380616 374.065917,551.471546 375.123697,552.830860 371.453138,555.574571 368.381953,555.410312 368.492248,553.508667 361.504179,553.114249 361.801950,547.928949 358.997823,547.775609 358.700132,553.115689 345.603068,552.381681 345.691336,550.922277 342.197307,550.736124 342.517178,545.252308 338.110692,545.011345 337.812928,550.207700 334.485812,550.032517 334.419696,551.292907 328.622268,550.964213 327.960647,562.661537"/>
    <poly id="108755868" type="building.residential" color="255,230,230" fill="1" layer="-1.00" shape="281.673556,674.702209 281.652724,677.466158 274.119583,677.381587 272.996387,678.642520 272.774526,679.969325 272.741850,681.340255 273.410185,682.710824 274.801429,683.384510 274.793077,688.779722 285.141357,688.796510 285.149874,683.721915 288.343378,683.731328 288.334866,688.816979 298.705395,688.822701 298.714253,684.411451 299.937878,683.703253 300.571552,682.586297 300.682045,681.071602 300.458603,679.324908 299.857264,678.407590 298.632894,677.667484 291.867529,677.582517 291.888311,674.719067 298.698145,674.726620 299.944013,673.996300 300.544408,673.078364 300.799440,671.342480 300.709638,669.816832 300.085943,668.700522 298.872711,667.982522 298.914946,663.560199 288.544360,663.443919 288.491340,668.529592 285.297819,668.487012 285.361977,663.423444 275.002512,663.296103 274.938530,668.702399 273.547969,669.355404 272.858784,670.715616 272.881743,672.086518 273.082721,673.424160 274.184964,674.695005 281.673556,674.702209"/>
    <poly id="108755869" type="building.residential" color="255,230,230" fill="1" layer="-1.00" shape="252.795567,582.379408 253.314911,553.667348 255.872343,550.128192 252.198960,547.377198 254.889918,543.837973 258.808196,546.776790 262.110735,542.430182 290.541575,544.173436 290.795171,539.640447 293.966507,539.815709 293.657764,545.299521 308.101252,546.099169 307.693296,553.396175 305.690348,553.286647 305.469838,557.244719 303.400121,557.124170 303.223694,560.253038 294.088022,559.749168 294.242433,557.084652 288.634177,556.777973 288.501827,559.066582 278.909923,558.529780 279.031220,556.384901 276.394000,556.231476 276.272709,558.387410 269.184493,557.993046 269.327902,555.571763 267.391716,555.462200 266.413246,556.866784 268.283527,558.645799 268.121017,567.203035 265.428212,567.149141 265.384999,569.669875 268.367111,569.723621 268.193736,578.789427 265.512064,578.746583 265.468738,581.046202 260.650625,580.960233 260.629172,582.519105 252.795567,582.379408"/>
    <poly id="108755870" type="building.residential" color="255,230,230" fill="1" layer="-1.00" shape="387.932465,663.835054 391.293438,664.938902 390.849913,667.979461 399.273292,668.196247 400.560504,661.307854 403.398352,662.124521 404.309161,658.973165 399.857635,657.692986 404.369289,646.060021 408.632051,648.114200 410.165987,644.973579 406.203732,643.062970 412.874268,631.837959 415.479087,633.904046 417.680858,631.161090 415.098305,629.117103 422.226174,620.069840 424.363993,622.799512 429.180154,619.093363 427.064601,616.385791 437.597867,608.276519 440.314679,611.746628 444.697051,608.372375 442.258601,605.255907 451.078953,598.452094 454.296822,602.574235 458.200920,599.576123 456.230117,597.056425 463.415423,591.513807 458.638729,585.402432 456.814600,586.818504 454.320469,583.613618 452.885632,584.719930 450.447175,581.592405 442.939305,587.378415 444.475871,589.356605 437.679862,594.600518 436.388259,592.942820 428.713550,598.861585 429.960616,600.464028 423.909826,605.121605 422.462346,603.276039 415.199184,608.885033 413.573550,606.807387 410.659384,609.053201 413.543218,612.744340 408.728016,618.318910 406.412798,616.827573 401.119849,623.806469 402.912045,625.209628 397.175072,634.256178 394.782157,633.140777 390.535958,641.666940 392.995636,642.782307 390.096394,652.413354 387.258778,652.049972 385.915362,657.832819 388.753131,658.494706 387.932465,663.835054"/>
    <poly id="108755871" type="building.residential" color="255,230,230" fill="1" layer="-1.00" shape="407.895222,556.716711 410.842815,554.559326 409.161455,552.304817 412.431617,549.915096 413.890281,551.871215 417.171559,549.459377 415.712895,547.503259 418.849577,545.202053 426.666237,555.689944 428.890831,554.052552 431.140069,557.069616 428.726381,558.839774 442.856505,577.815237 439.052450,580.614294 437.927833,579.111290 435.336179,581.014209 437.117747,583.390280 433.836464,585.791062 431.910141,583.216062 429.196134,585.207490 423.795727,577.946637 425.642139,576.585832 424.283687,574.762331 422.615242,575.990376 416.969872,568.409032 418.504843,567.280558 415.353685,563.058880 413.585135,564.364366 407.895222,556.716711"/>
    <poly id="108755872" type="building.residential" color="255,230,230" fill="1" layer="-1.00" shape="281.432622,617.300865 304.198818,617.289161 304.201052,621.634070 307.772874,621.632234 307.770641,617.287324 324.339006,617.289864 324.338454,616.217456 333.473862,616.212761 333.481955,610.308986 331.056232,610.310233 331.053664,605.313035 329.217680,605.313978 329.215811,601.676637 309.109010,601.686971 309.110328,604.251905 303.591245,604.243686 303.589688,601.214410 282.436930,601.225284 282.438243,603.779162 277.063818,603.781925 277.062312,600.852151 255.386576,600.863296 255.388423,604.456415 252.628884,604.457834 252.631402,609.355531 249.181978,609.357305 249.185423,616.057090 257.786729,616.052667 257.787377,617.313023 276.291868,617.303508 276.293869,621.195132 281.434623,621.192489 281.432622,617.300865"/>
    <poly id="108755873" type="building.residential" color="255,230,230" fill="1" layer="-1.00" shape="242.925675,647.126979 242.904842,649.890928 235.371700,649.806357 234.259631,651.067285 234.037770,652.394090 233.993967,653.765026 234.673430,655.135590 236.053546,655.809281 236.045195,661.204494 246.404604,661.221276 246.413121,656.146680 249.595498,656.156099 249.586987,661.241750 259.968645,661.247466 259.966370,656.825165 261.201128,656.128018 261.834803,655.011061 261.945295,653.496366 261.710726,651.749677 261.120509,650.821298 259.885011,650.081198 253.119650,650.007287 253.140432,647.143836 259.961395,647.151384 261.196136,646.421069 261.807658,645.503127 262.051563,643.767248 261.961761,642.241600 261.338065,641.125290 260.124834,640.407290 260.178195,635.984961 249.807607,635.868681 249.743459,640.954361 246.561065,640.911775 246.614096,635.848212 236.265756,635.720866 236.201774,641.127163 234.811213,641.780168 234.122027,643.140380 234.133860,644.511287 234.345964,645.848925 235.448208,647.119769 242.925675,647.126979"/>
    <poly id="108755874" type="building.residential" color="255,230,230" fill="1" layer="-1.00" shape="313.738844,668.428163 313.865856,655.758206 309.993578,655.715974 310.036455,652.542952 313.897606,652.585189 314.163042,627.798058 319.092408,627.850803 319.071296,630.073020 322.465100,630.104443 322.496930,627.086206 325.924116,627.117612 325.892257,630.080569 329.764536,630.122802 329.668972,639.033786 326.564474,639.002215 326.532775,642.274733 329.603891,642.306322 329.508401,651.361031 327.316337,651.340046 327.252518,657.066958 329.544727,657.087891 329.449203,666.076266 325.309868,666.023115 325.288915,668.554893 321.683689,668.512524 321.715684,665.814904 318.132712,665.772523 318.100723,668.481199 313.738844,668.428163"/>
    <poly id="108756102" type="building.residential" color="255,230,230" fill="1" layer="-1.00" shape="555.913131,846.787648 611.195294,808.241044 622.842761,824.719170 567.560605,863.265774 555.913131,846.787648"/>
    <poly id="108756103" type="building.residential" color="255,230,230" fill="1" layer="-1.00" shape="457.543862,793.416856 457.608379,789.049803 459.551137,780.303709 442.981306,777.415622 441.571055,783.054778 439.706302,792.021947 438.365936,803.730672 439.717962,814.697278 443.451280,825.817439 449.577164,837.378599 436.231091,850.055350 411.984592,849.249697 388.107377,809.251227 372.588951,816.965068 401.267323,867.353471 439.667560,868.140784 442.303627,866.060947 443.773362,867.906501 446.175855,866.014732 444.694993,864.169184 473.380360,841.655988 469.428395,838.109126 469.950797,836.992227 470.250468,835.510603 470.249860,834.327638 469.948853,833.211163 469.125255,832.846747 468.079263,832.769894 462.254956,823.430784 459.123045,813.360610 457.392390,801.797189 457.489829,796.534604 459.804301,796.577637 459.858333,793.459889 457.543862,793.416856"/>
    <poly id="108756104" type="building.residential" color="255,230,230" fill="1" layer="-1.00" shape="515.675414,821.413287 536.374483,804.730588 562.657069,805.192481 562.625903,809.504236 569.346727,809.545006 569.366772,805.244312 597.195875,805.406909 597.246957,796.540178 595.522242,796.530009 595.552529,790.504614 592.103100,790.484274 592.113182,788.450013 557.930454,788.257512 557.931226,789.761093 548.740167,789.710536 548.760950,786.847088 538.468296,786.786041 538.447496,789.616322 533.073062,789.585916 533.093845,786.722468 529.766814,786.702066 529.757164,789.576564 527.487099,789.334504 508.512021,804.623294 509.970599,806.413574 507.890684,808.095117 511.809915,812.902351 509.941320,814.395837 515.675414,821.413287"/>
    <poly id="108756105" type="building.residential" color="255,230,230" fill="1" layer="-1.00" shape="454.905019,746.807186 466.871672,756.441647 468.417314,754.428707 469.686344,755.467295 476.326515,750.123957 475.647110,748.863951 479.829707,746.495872 480.642524,747.534695 490.198391,742.930595 500.712342,740.559263 500.566735,738.701973 503.326157,738.479441 503.549728,740.480415 513.775514,740.331437 523.924432,742.172533 524.591113,740.325881 531.602211,742.245979 530.490597,744.391365 539.071885,748.765031 539.961297,747.283105 541.230190,748.056355 540.262905,749.571488 547.654161,755.062396 548.810641,753.613500 549.890509,754.652185 548.622751,756.090083 555.413935,763.129102 556.615213,762.244026 559.376384,765.426662 557.808062,766.610432 563.197661,774.501463 575.515865,775.357484 576.712726,765.871043 570.632081,755.713939 572.945843,754.375006 571.230932,751.788843 568.917278,753.337835 562.871961,746.972833 556.303742,740.751823 545.551023,733.195217 536.001258,728.014979 536.523241,726.079955 528.009521,723.276169 527.198227,725.200285 518.907652,723.568294 509.883298,723.130699 500.926013,723.290081 500.747025,721.432808 497.275351,721.434591 497.276572,723.811576 489.221228,725.219793 480.866292,728.264416 471.355194,733.377057 470.308252,731.453895 467.315887,733.091683 468.440718,735.014805 461.544583,740.280884 454.905019,746.807186"/>
    <poly id="108756106" type="building.residential" color="255,230,230" fill="1" layer="-1.00" shape="366.642371,764.619153 366.652383,762.452221 364.026373,762.453572 364.034315,756.262348 362.376368,756.263201 362.393670,746.633634 386.372744,746.687637 386.371425,744.122704 393.503948,744.141148 393.495146,748.662954 427.700091,748.733814 428.579751,749.927383 430.515070,748.356472 432.519210,750.787706 431.162270,751.905034 443.131420,766.392965 429.206051,777.754376 420.154047,766.824896 413.800432,766.817107 413.810473,764.705454 366.642371,764.619153"/>
    <poly id="108756507" type="building.residential" color="255,230,230" fill="1" layer="-1.00" shape="144.214025,772.019393 144.163759,760.842047 150.339322,760.805699 150.338400,759.014666 153.776691,759.001839 153.763160,754.336317 156.889890,754.323650 156.914462,758.823331 161.676880,758.798767 161.688947,760.622960 173.250051,760.561727 173.238041,758.848091 176.765349,758.835218 176.740356,753.517412 180.467947,753.493381 180.493037,758.999135 184.654587,758.974880 184.666671,760.832241 196.828641,760.770699 196.816711,759.211844 199.476099,759.199419 199.463264,755.882698 204.615133,755.857934 204.627871,758.986706 211.148381,758.961237 211.160596,761.072880 222.120836,761.023014 222.108826,759.309378 225.369081,759.296644 225.344488,754.752741 228.638119,754.728934 228.662826,759.493952 233.380735,759.469412 233.392693,761.083546 239.601642,761.058238 239.663766,773.661766 237.349321,773.674013 237.336964,771.285976 231.439576,771.311124 231.464107,775.733414 223.441435,775.770712 223.417268,772.055990 208.829577,772.118781 208.853676,775.700833 198.705720,775.750282 198.681205,771.361159 182.680368,771.435735 182.704370,774.829840 175.616379,774.866658 175.592001,770.742873 159.479891,770.817507 159.493341,775.328249 151.626448,775.365469 151.601705,770.534115 146.038136,770.570149 146.038876,772.007397 144.214025,772.019393"/>
    <poly id="108756508" type="building.residential" color="255,230,230" fill="1" layer="-1.00" shape="153.802601,809.294468 154.021476,802.174447 156.257963,802.029570 156.178085,798.171152 158.792896,798.026080 159.013565,794.388622 168.149736,795.865386 167.516655,798.132143 176.030256,800.681637 176.729895,798.016839 184.687501,801.274188 183.486969,803.607571 187.927871,805.860658 189.195241,803.670965 196.029635,808.156081 194.762169,810.157826 198.491257,813.041458 200.660257,811.492534 207.751356,817.492157 207.229085,818.863340 209.243251,819.149752 223.478128,803.808088 224.936225,804.658630 226.014718,803.021823 225.980232,800.877024 224.377863,800.767292 224.551257,791.756762 229.313731,791.842756 229.346270,790.206487 232.706709,790.271091 232.750085,788.070974 238.747685,788.178443 238.455011,803.247587 239.334131,803.390859 240.380409,804.020498 240.537067,805.723004 239.936945,807.171617 238.824741,808.167208 210.521925,838.905729 210.188930,840.497929 209.176819,841.393967 207.686121,842.058080 205.371630,841.981882 203.768805,840.987690 202.722219,839.761040 202.420909,838.058609 202.609250,836.466483 203.053574,834.984783 197.754558,830.167203 190.518351,823.283195 180.812173,816.909024 169.649634,813.056316 169.060891,814.991377 166.367677,814.141471 166.856372,812.394410 162.226672,810.848989 153.802601,809.294468"/>
    <poly id="108756509" type="building.residential" color="255,230,230" fill="1" layer="-1.00" shape="105.526662,905.062227 102.156053,906.854998 103.548278,909.430272 106.918881,907.626445 113.256301,919.375448 118.265004,922.236307 116.497358,925.288608 119.491450,927.000706 121.270223,923.948399 127.892849,927.748164 138.040870,927.831376 138.009325,931.391347 143.906746,931.432528 143.927181,927.905731 157.658166,928.020263 157.637292,930.695767 161.587453,930.726898 161.619472,928.084555 176.095982,928.209760 176.064008,930.940548 179.580210,930.971902 179.601073,928.274287 192.764566,928.378058 192.743782,931.230454 196.170960,931.250798 196.202888,928.431564 205.004514,928.504417 205.078267,920.477900 202.630279,920.457050 202.672548,916.112116 200.580630,916.091083 200.612484,913.128124 136.586476,912.586236 136.565698,915.449688 131.157872,915.408254 131.178382,912.025181 123.398160,907.507388 120.794824,908.326857 119.224132,904.911437 121.615823,903.649847 117.583586,895.503832 115.269825,896.842772 110.637211,889.647862 112.795157,888.242668 108.540565,880.461607 105.937571,881.944421 104.367688,880.098919 101.008081,881.648458 100.628805,879.802342 93.765120,883.255279 97.596528,890.351100 94.114676,892.199208 95.673974,895.095013 99.155820,893.235850 105.526662,905.062227"/>
    <poly id="108756511" type="building.residential" color="255,230,230" fill="1" layer="-1.00" shape="204.957900,859.649193 204.944557,855.348511 201.361615,855.361413 201.374822,859.396757 165.233902,859.647553 159.185536,847.400891 151.743329,851.031015 152.623292,852.810539 149.230361,854.470651 150.210583,856.471238 147.496238,857.799328 151.528478,865.956399 153.085889,865.192749 154.556214,868.177046 162.480855,872.241480 167.143275,872.504415 167.155667,874.958786 176.925308,874.931639 176.923912,872.222979 179.739080,872.210473 179.740464,874.897021 188.976001,874.870149 188.963461,872.128328 192.012299,872.115701 192.013729,874.890695 200.948832,874.863979 200.947294,871.878926 206.521999,871.864997 206.534732,874.982714 215.814772,874.944765 215.813473,872.424053 217.894247,872.411925 217.880779,867.868017 220.150715,867.855791 220.125031,861.200240 212.057847,861.226508 212.057021,859.623424 204.957900,859.649193"/>
    <poly id="108757202" type="building.yes" color="255,230,230" fill="1" layer="-1.00" shape="269.004840,900.832048 269.196609,884.292542 279.055332,884.398022 278.874696,900.948577 269.004840,900.832048"/>
    <poly id="108757203" type="building.yes" color="255,230,230" fill="1" layer="-1.00" shape="287.232077,881.054973 287.225888,869.037373 328.741330,869.015996 328.747517,881.033594 287.232077,881.054973"/>
    <poly id="108757204" type="building.yes" color="255,230,230" fill="1" layer="-1.00" shape="230.511345,913.444387 230.156241,872.129214 265.295684,871.834718 278.414598,871.805849 278.443071,883.878717 264.556382,883.907981 242.836250,884.096063 243.001350,902.183192 278.507983,901.888505 278.602742,913.032655 230.511345,913.444387"/>
    <poly id="108757205" type="leisure.pitch" color="207,245,201" fill="1" layer="-2.00" shape="261.234897,829.847057 261.984399,794.357702 281.390394,794.767830 280.640890,830.257183 261.234897,829.847057"/>
    <poly id="108757205#1" type="sport.basketball" color="79,230,125" fill="1" layer="-2.00" shape="261.234897,829.847057 261.984399,794.357702 281.390394,794.767830 280.640890,830.257183 261.234897,829.847057"/>
    <poly id="108757206" type="amenity.school" color="237,199,199" fill="1" layer="-2.00" shape="295.931282,941.514403 227.588265,941.560678 227.152848,830.760126 247.360104,809.765897 247.895316,790.307494 292.326162,790.417290 322.046695,790.158768 322.121930,806.620743 348.411174,863.223712 348.440477,920.138700 331.145990,936.156334 295.931282,941.514403"/>
    <poly id="108757207" type="building.yes" color="255,230,230" fill="1" layer="-1.00" shape="305.369122,923.809281 305.203235,882.582467 341.644620,882.431034 341.759832,911.695547 336.385425,911.720426 336.424967,923.682728 305.369122,923.809281"/>
    <poly id="108757208" type="building.yes" color="255,230,230" fill="1" layer="-1.00" shape="280.148785,911.804670 280.211544,904.032444 295.489211,904.168299 295.689330,882.233583 304.045868,882.306669 303.782995,912.024666 280.148785,911.804670"/>
    <poly id="108757209" type="building.yes" color="255,230,230" fill="1" layer="-1.00" shape="228.973577,865.949656 229.104983,840.233902 269.307546,840.434312 269.338195,835.127534 281.400076,835.187658 286.062369,835.207369 285.830442,881.807486 278.964960,881.766799 279.035470,867.438507 264.892805,867.368401 264.954039,856.633232 241.920745,856.523483 241.881123,866.009341 228.973577,865.949656"/>
    <poly id="108840012" type="building.residential" color="255,230,230" fill="1" layer="-1.00" shape="491.566515,221.253529 491.575559,217.185011 488.426567,217.186623 488.435492,212.885934 491.673508,212.895332 491.683180,210.054001 489.190686,210.044221 489.199141,204.825905 492.993510,204.823963 492.994637,207.024055 517.919552,207.066575 517.917260,202.589000 520.754691,202.587548 520.745929,207.208853 531.149855,207.225639 531.140001,209.713187 527.812974,209.714889 527.803635,213.208509 531.108413,213.217873 531.110122,216.556707 527.949997,216.547268 527.940483,219.698160 531.078353,219.707610 531.079134,221.233302 517.793270,221.217991 517.802852,218.199768 512.539684,218.180351 512.530147,221.287020 491.566515,221.253529"/>
    <poly id="108840014" type="building.yes" color="255,230,230" fill="1" layer="-1.00" shape="454.658654,266.678376 454.647730,245.351848 467.766677,245.345129 467.777601,266.671656 454.658654,266.678376"/>
    <poly id="108840016" type="amenity.parking" color="184,184,179" fill="1" layer="-1.00" shape="500.625283,527.636728 510.424615,520.412300 509.110702,518.644055 511.680102,516.741149 512.949473,518.443083 527.264735,507.899617 568.496944,563.079791 541.801838,582.761651 508.820511,538.610877 500.625283,527.636728"/>
    <poly id="108840016#1" type="building.garage" color="255,230,230" fill="1" layer="-1.00" shape="500.625283,527.636728 510.424615,520.412300 509.110702,518.644055 511.680102,516.741149 512.949473,518.443083 527.264735,507.899617 568.496944,563.079791 541.801838,582.761651 508.820511,538.610877 500.625283,527.636728"/>