<?xml version="1.0" encoding="UTF-8"?>

<!-- generated on 2022-01-24 02:42:16 by Eclipse SUMO netedit Version v1_10_0+0626-dea525ad83
<configuration xmlns:xsi="http://www.w3.org/2001/XMLSchema-instance" xsi:noNamespaceSchemaLocation="http://sumo.dlr.de/xsd/netconvertConfiguration.xsd">

    <input>
        <sumo-net-file value="/Users/corinnajiang/sumo/tools/2022-01-24-02-38-44/osm.net.xml"/>
    </input>

    <output>
        <output-file value="/Users/corinnajiang/sumo/tools/2022-01-24-02-38-44/osm.net.xml"/>
        <output.street-names value="true"/>
    </output>

    <processing>
        <geometry.min-radius.fix.railways value="false"/>
        <geometry.max-grade.fix value="false"/>
        <offset.disable-normalization value="true"/>
        <lefthand value="true"/>
    </processing>

    <junctions>
        <no-turnarounds value="true"/>
        <junctions.corner-detail value="5"/>
        <junctions.limit-turn-speed value="5.5"/>
        <rectangular-lane-cut value="false"/>
    </junctions>

    <pedestrian>
        <walkingareas value="false"/>
    </pedestrian>

    <report>
        <aggregate-warnings value="5"/>
    </report>

</configuration>
-->

<net version="1.9" junctionCornerDetail="5" lefthand="true" limitTurnSpeed="5.50" xmlns:xsi="http://www.w3.org/2001/XMLSchema-instance" xsi:noNamespaceSchemaLocation="http://sumo.dlr.de/xsd/net_file.xsd">

    <location netOffset="-359639.35,-147574.47" convBoundary="0.00,0.00,2839.51,1870.10" origBoundary="103.675220,1.288762,103.819580,1.369612" projParameter="+proj=utm +zone=48 +ellps=WGS84 +datum=WGS84 +units=m +no_defs"/>

    <type id="highway.bridleway" priority="1" numLanes="1" speed="2.78" allow="pedestrian" oneway="1" width="2.00"/>
    <type id="highway.bus_guideway" priority="1" numLanes="1" speed="27.78" allow="bus" oneway="1"/>
    <type id="highway.cycleway" priority="1" numLanes="1" speed="8.33" allow="bicycle" oneway="0" width="1.00"/>
    <type id="highway.footway" priority="1" numLanes="1" speed="2.78" allow="pedestrian" oneway="1" width="2.00"/>
    <type id="highway.ford" priority="1" numLanes="1" speed="2.78" allow="army" oneway="0"/>
    <type id="highway.living_street" priority="2" numLanes="1" speed="2.78" disallow="tram rail_urban rail rail_electric rail_fast ship" oneway="0"/>
    <type id="highway.motorway" priority="14" numLanes="2" speed="39.44" allow="private emergency authority army vip passenger hov taxi bus coach delivery truck trailer motorcycle evehicle custom1 custom2" oneway="1"/>
    <type id="highway.motorway_link" priority="9" numLanes="1" speed="22.22" allow="private emergency authority army vip passenger hov taxi bus coach delivery truck trailer motorcycle evehicle custom1 custom2" oneway="1"/>
    <type id="highway.path" priority="1" numLanes="1" speed="2.78" allow="pedestrian bicycle" oneway="0" width="2.00"/>
    <type id="highway.pedestrian" priority="1" numLanes="1" speed="2.78" allow="pedestrian" oneway="1" width="2.00"/>
    <type id="highway.primary" priority="12" numLanes="2" speed="27.78" disallow="tram rail_urban rail rail_electric rail_fast ship" oneway="0"/>
    <type id="highway.primary_link" priority="7" numLanes="1" speed="22.22" disallow="tram rail_urban rail rail_electric rail_fast ship" oneway="0"/>
    <type id="highway.raceway" priority="15" numLanes="2" speed="83.33" allow="vip" oneway="0"/>
    <type id="highway.residential" priority="3" numLanes="1" speed="13.89" disallow="tram rail_urban rail rail_electric rail_fast ship" oneway="0"/>
    <type id="highway.secondary" priority="11" numLanes="1" speed="27.78" disallow="tram rail_urban rail rail_electric rail_fast ship" oneway="0"/>
    <type id="highway.secondary_link" priority="6" numLanes="1" speed="22.22" disallow="tram rail_urban rail rail_electric rail_fast ship" oneway="0"/>
    <type id="highway.service" priority="1" numLanes="1" speed="5.56" allow="pedestrian delivery bicycle" oneway="0"/>
    <type id="highway.stairs" priority="1" numLanes="1" speed="1.39" allow="pedestrian" oneway="1" width="2.00"/>
    <type id="highway.step" priority="1" numLanes="1" speed="1.39" allow="pedestrian" oneway="1" width="2.00"/>
    <type id="highway.steps" priority="1" numLanes="1" speed="1.39" allow="pedestrian" oneway="1" width="2.00"/>
    <type id="highway.tertiary" priority="10" numLanes="1" speed="22.22" disallow="tram rail_urban rail rail_electric rail_fast ship" oneway="0"/>
    <type id="highway.tertiary_link" priority="5" numLanes="1" speed="22.22" disallow="tram rail_urban rail rail_electric rail_fast ship" oneway="0"/>
    <type id="highway.track" priority="1" numLanes="1" speed="5.56" allow="pedestrian motorcycle moped bicycle" oneway="0"/>
    <type id="highway.trunk" priority="13" numLanes="2" speed="27.78" disallow="pedestrian bicycle tram rail_urban rail rail_electric rail_fast ship" oneway="0"/>
    <type id="highway.trunk_link" priority="8" numLanes="1" speed="22.22" disallow="pedestrian bicycle tram rail_urban rail rail_electric rail_fast ship" oneway="0"/>
    <type id="highway.unclassified" priority="4" numLanes="1" speed="13.89" disallow="tram rail_urban rail rail_electric rail_fast ship" oneway="0"/>
    <type id="highway.unsurfaced" priority="1" numLanes="1" speed="8.33" disallow="tram rail_urban rail rail_electric rail_fast ship" oneway="0"/>
    <type id="railway.highspeed" priority="21" numLanes="1" speed="69.44" allow="rail_fast" oneway="1"/>
    <type id="railway.light_rail" priority="19" numLanes="1" speed="27.78" allow="rail_urban" oneway="1"/>
    <type id="railway.preserved" priority="16" numLanes="1" speed="27.78" allow="rail" oneway="1"/>
    <type id="railway.rail" priority="20" numLanes="1" speed="44.44" allow="rail" oneway="1"/>
    <type id="railway.subway" priority="18" numLanes="1" speed="27.78" allow="rail_urban" oneway="1"/>
    <type id="railway.tram" priority="17" numLanes="1" speed="13.89" allow="tram" oneway="1"/>

    <edge id=":1218588051_0" function="internal">
        <lane id=":1218588051_0_0" index="0" allow="private emergency authority army vip passenger hov taxi bus coach delivery truck trailer motorcycle evehicle custom1 custom2" speed="18.05" length="3.01" shape="810.84,927.41 808.23,928.91"/>
    </edge>
    <edge id=":1218588051_1" function="internal">
        <lane id=":1218588051_1_0" index="0" allow="private emergency authority army vip passenger hov taxi bus coach delivery truck trailer motorcycle evehicle custom1 custom2" speed="25.00" length="3.00" shape="812.42,930.22 809.81,931.69"/>
        <lane id=":1218588051_1_1" index="1" allow="private emergency authority army vip passenger hov taxi bus coach delivery truck trailer motorcycle evehicle custom1 custom2" speed="25.00" length="3.00" shape="814.00,933.00 811.39,934.48"/>
        <lane id=":1218588051_1_2" index="2" allow="private emergency authority army vip passenger hov taxi bus coach delivery truck trailer motorcycle evehicle custom1 custom2" speed="25.00" length="3.00" shape="815.57,935.79 812.96,937.26"/>
    </edge>
    <edge id=":1218588052_0" function="internal">
        <lane id=":1218588052_0_0" index="0" allow="private emergency authority army vip passenger hov taxi bus coach delivery truck trailer motorcycle evehicle custom1 custom2" speed="19.45" length="3.37" shape="1459.57,562.37 1456.55,564.13"/>
        <lane id=":1218588052_0_1" index="1" allow="private emergency authority army vip passenger hov taxi bus coach delivery truck trailer motorcycle evehicle custom1 custom2" speed="19.45" length="3.37" shape="1461.06,565.21 1458.26,566.84"/>
    </edge>
    <edge id=":1218588052_2" function="internal">
        <lane id=":1218588052_2_0" index="0" allow="private emergency authority army vip passenger hov taxi bus coach delivery truck trailer motorcycle evehicle custom1 custom2" speed="25.00" length="3.29" shape="1462.55,568.04 1461.57,568.27 1460.80,568.06 1460.04,567.86 1459.08,568.13"/>
        <lane id=":1218588052_2_1" index="1" allow="private emergency authority army vip passenger hov taxi bus coach delivery truck trailer motorcycle evehicle custom1 custom2" speed="25.00" length="3.29" shape="1464.04,570.87 1460.79,570.84"/>
        <lane id=":1218588052_2_2" index="2" allow="private emergency authority army vip passenger hov taxi bus coach delivery truck trailer motorcycle evehicle custom1 custom2" speed="25.00" length="3.29" shape="1465.53,573.71 1462.50,573.55"/>
    </edge>
    <edge id=":1221460131_0" function="internal">
        <lane id=":1221460131_0_0" index="0" allow="private emergency authority army vip passenger hov taxi bus coach delivery truck trailer motorcycle evehicle custom1 custom2" speed="25.00" length="3.19" shape="1968.99,277.48 1966.19,279.09"/>
        <lane id=":1221460131_0_1" index="1" allow="private emergency authority army vip passenger hov taxi bus coach delivery truck trailer motorcycle evehicle custom1 custom2" speed="25.00" length="3.19" shape="1970.57,280.26 1967.81,281.85"/>
        <lane id=":1221460131_0_2" index="2" allow="private emergency authority army vip passenger hov taxi bus coach delivery truck trailer motorcycle evehicle custom1 custom2" speed="25.00" length="3.19" shape="1972.16,283.04 1969.44,284.60"/>
    </edge>
    <edge id=":1221460131_3" function="internal">
        <lane id=":1221460131_3_0" index="0" allow="private emergency authority army vip passenger hov taxi bus coach delivery truck trailer motorcycle evehicle custom1 custom2" speed="19.45" length="3.29" shape="1967.56,274.97 1966.64,275.32 1966.02,275.56 1965.41,275.85 1964.56,276.33"/>
    </edge>
    <edge id=":1369059528_0" function="internal">
        <lane id=":1369059528_0_0" index="0" disallow="tram rail_urban rail rail_electric rail_fast ship" speed="6.09" length="7.40" shape="1161.05,1009.35 1159.83,1010.95 1159.39,1012.58 1159.72,1014.23 1160.82,1015.92"/>
    </edge>
    <edge id=":1369059528_1" function="internal">
        <lane id=":1369059528_1_0" index="0" disallow="tram rail_urban rail rail_electric rail_fast ship" speed="3.91" length="2.47" shape="1163.22,1013.81 1162.86,1013.25 1162.75,1012.69 1162.90,1012.15 1163.30,1011.62"/>
    </edge>
    <edge id=":139671795_0" function="internal">
        <lane id=":139671795_0_0" index="0" allow="private emergency authority army vip passenger hov taxi bus coach delivery truck trailer motorcycle evehicle custom1 custom2" speed="25.00" length="7.72" shape="530.12,1075.31 523.02,1077.58"/>
        <lane id=":139671795_0_1" index="1" allow="private emergency authority army vip passenger hov taxi bus coach delivery truck trailer motorcycle evehicle custom1 custom2" speed="25.00" length="7.72" shape="531.23,1078.31 523.88,1080.67"/>
        <lane id=":139671795_0_2" index="2" allow="private emergency authority army vip passenger hov taxi bus coach delivery truck trailer motorcycle evehicle custom1 custom2" speed="25.00" length="7.72" shape="532.33,1081.32 524.73,1083.75"/>
    </edge>
    <edge id=":139696361_0" function="internal">
        <lane id=":139696361_0_0" index="0" allow="private emergency authority army vip passenger hov taxi bus coach delivery truck trailer motorcycle evehicle custom1 custom2" speed="25.00" length="8.21" shape="1140.36,773.33 1142.55,772.34 1144.21,772.02 1145.87,771.70 1148.07,770.72"/>
        <lane id=":139696361_0_1" index="1" allow="private emergency authority army vip passenger hov taxi bus coach delivery truck trailer motorcycle evehicle custom1 custom2" speed="25.00" length="8.21" shape="1140.36,773.33 1142.30,771.91 1143.41,770.63 1144.52,769.35 1146.47,767.95"/>
        <lane id=":139696361_0_2" index="2" allow="private emergency authority army vip passenger hov taxi bus coach delivery truck trailer motorcycle evehicle custom1 custom2" speed="25.00" length="8.21" shape="1138.75,770.56 1140.70,769.14 1141.81,767.86 1142.93,766.58 1144.88,765.17"/>
        <lane id=":139696361_0_3" index="3" allow="private emergency authority army vip passenger hov taxi bus coach delivery truck trailer motorcycle evehicle custom1 custom2" speed="25.00" length="8.21" shape="1137.14,767.79 1139.10,766.37 1140.21,765.09 1141.33,763.81 1143.29,762.40"/>
    </edge>
    <edge id=":139700093_0" function="internal">
        <lane id=":139700093_0_0" index="0" allow="private emergency authority army vip passenger hov taxi bus coach delivery truck trailer motorcycle evehicle custom1 custom2" speed="19.45" length="5.33" shape="621.29,1068.04 622.74,1067.44 623.67,1066.89 624.54,1066.23 625.81,1065.28"/>
        <lane id=":139700093_0_1" index="1" allow="private emergency authority army vip passenger hov taxi bus coach delivery truck trailer motorcycle evehicle custom1 custom2" speed="19.45" length="4.48" shape="620.17,1065.05 621.38,1064.53 622.16,1064.05 622.88,1063.48 623.94,1062.68"/>
    </edge>
    <edge id=":139700093_2" function="internal">
        <lane id=":139700093_2_0" index="0" allow="private emergency authority army vip passenger hov taxi bus coach delivery truck trailer motorcycle evehicle custom1 custom2" speed="25.00" length="2.85" shape="619.05,1062.05 622.44,1060.57"/>
        <lane id=":139700093_2_1" index="1" allow="private emergency authority army vip passenger hov taxi bus coach delivery truck trailer motorcycle evehicle custom1 custom2" speed="25.00" length="2.85" shape="617.92,1059.05 620.54,1057.93"/>
        <lane id=":139700093_2_2" index="2" allow="private emergency authority army vip passenger hov taxi bus coach delivery truck trailer motorcycle evehicle custom1 custom2" speed="25.00" length="2.85" shape="616.80,1056.06 618.65,1055.29"/>
    </edge>
    <edge id=":139701133_0" function="internal">
        <lane id=":139701133_0_0" index="0" allow="private emergency authority army vip passenger hov taxi bus coach delivery truck trailer motorcycle evehicle custom1 custom2" speed="5.69" length="1.50" shape="2059.79,264.93 2060.16,264.69 2060.36,264.47 2060.51,264.19 2060.72,263.79"/>
        <lane id=":139701133_0_1" index="1" allow="private emergency authority army vip passenger hov taxi bus coach delivery truck trailer motorcycle evehicle custom1 custom2" speed="19.45" length="0.34" shape="2058.25,262.12 2057.93,262.22"/>
    </edge>
    <edge id=":139701133_2" function="internal">
        <lane id=":139701133_2_0" index="0" allow="private emergency authority army vip passenger hov taxi bus coach delivery truck trailer motorcycle evehicle custom1 custom2" speed="25.00" length="34.34" shape="2056.71,259.32 2086.93,242.67"/>
        <lane id=":139701133_2_1" index="1" allow="private emergency authority army vip passenger hov taxi bus coach delivery truck trailer motorcycle evehicle custom1 custom2" speed="25.00" length="34.34" shape="2055.17,256.52 2085.25,239.94"/>
        <lane id=":139701133_2_2" index="2" allow="private emergency authority army vip passenger hov taxi bus coach delivery truck trailer motorcycle evehicle custom1 custom2" speed="25.00" length="34.34" shape="2053.63,253.71 2083.57,237.21"/>
    </edge>
    <edge id=":1415691750_0" function="internal">
        <lane id=":1415691750_0_0" index="0" disallow="tram rail_urban rail rail_electric rail_fast ship" speed="13.89" length="8.21" shape="1913.82,1738.30 1913.32,1740.65 1912.60,1742.18 1911.88,1743.71 1911.37,1746.07"/>
        <lane id=":1415691750_0_1" index="1" disallow="tram rail_urban rail rail_electric rail_fast ship" speed="13.89" length="8.21" shape="1917.00,1738.63 1916.50,1740.99 1915.78,1742.52 1915.06,1744.06 1914.55,1746.42"/>
        <lane id=":1415691750_0_2" index="2" disallow="tram rail_urban rail rail_electric rail_fast ship" speed="13.89" length="8.21" shape="1917.00,1738.63 1917.00,1741.04 1917.37,1742.70 1917.75,1744.35 1917.73,1746.77"/>
    </edge>
    <edge id=":1492179345_0" function="internal">
        <lane id=":1492179345_0_0" index="0" allow="private emergency authority army vip passenger hov taxi bus coach delivery truck trailer motorcycle evehicle custom1 custom2" speed="13.89" length="7.50" shape="2290.81,160.97 2292.95,160.73 2294.45,160.99 2295.96,161.33 2298.14,161.34"/>
        <lane id=":1492179345_0_1" index="1" allow="private emergency authority army vip passenger hov taxi bus coach delivery truck trailer motorcycle evehicle custom1 custom2" speed="13.89" length="7.50" shape="2290.81,160.97 2292.92,160.22 2294.27,159.39 2295.64,158.65 2297.79,158.15"/>
    </edge>
    <edge id=":1492179353_0" function="internal">
        <lane id=":1492179353_0_0" index="0" allow="private emergency authority army vip passenger hov taxi bus coach delivery truck trailer motorcycle evehicle custom1 custom2" speed="15.28" length="7.48" shape="2430.61,184.44 2429.94,182.34 2429.72,180.84 2429.68,179.31 2429.59,177.08"/>
    </edge>
    <edge id=":1492179353_1" function="internal">
        <lane id=":1492179353_1_0" index="0" disallow="tram rail_urban rail rail_electric rail_fast ship" speed="16.67" length="7.99" shape="2427.60,185.55 2426.98,183.26 2426.86,181.61 2426.72,179.97 2426.06,177.69"/>
        <lane id=":1492179353_1_1" index="1" disallow="tram rail_urban rail rail_electric rail_fast ship" speed="16.67" length="7.99" shape="2424.60,186.66 2423.99,184.38 2423.86,182.75 2423.73,181.11 2423.07,178.85"/>
        <lane id=":1492179353_1_2" index="2" disallow="tram rail_urban rail rail_electric rail_fast ship" speed="16.67" length="7.99" shape="2421.60,187.76 2420.99,185.51 2420.87,183.88 2420.74,182.26 2420.09,180.02"/>
    </edge>
    <edge id=":1492179359_0" function="internal">
        <lane id=":1492179359_0_0" index="0" disallow="tram rail_urban rail rail_electric rail_fast ship" speed="16.67" length="8.16" shape="2446.45,232.49 2445.93,230.11 2445.93,228.39 2445.90,226.69 2445.30,224.34"/>
        <lane id=":1492179359_0_1" index="1" disallow="tram rail_urban rail rail_electric rail_fast ship" speed="16.67" length="8.16" shape="2446.45,232.49 2445.46,230.29 2444.43,228.95 2443.36,227.62 2442.30,225.44"/>
        <lane id=":1492179359_0_2" index="2" disallow="tram rail_urban rail rail_electric rail_fast ship" speed="16.67" length="8.16" shape="2443.41,233.49 2442.43,231.32 2441.40,230.00 2440.35,228.69 2439.30,226.55"/>
        <lane id=":1492179359_0_3" index="3" disallow="tram rail_urban rail rail_electric rail_fast ship" speed="16.67" length="8.16" shape="2440.37,234.49 2439.40,232.35 2438.38,231.06 2437.34,229.77 2436.29,227.65"/>
    </edge>
    <edge id=":1492179363_0" function="internal">
        <lane id=":1492179363_0_0" index="0" disallow="tram rail_urban rail rail_electric rail_fast ship" speed="16.67" length="8.19" shape="2427.87,239.41 2428.45,241.71 2428.47,243.37 2428.47,245.05 2428.99,247.36"/>
        <lane id=":1492179363_0_1" index="1" disallow="tram rail_urban rail rail_electric rail_fast ship" speed="16.67" length="8.19" shape="2430.87,238.30 2431.46,240.62 2431.48,242.30 2431.49,243.99 2432.02,246.33"/>
        <lane id=":1492179363_0_2" index="2" disallow="tram rail_urban rail rail_electric rail_fast ship" speed="16.67" length="8.19" shape="2433.87,237.19 2434.47,239.53 2434.50,241.23 2434.51,242.93 2435.05,245.29"/>
        <lane id=":1492179363_0_3" index="3" disallow="tram rail_urban rail rail_electric rail_fast ship" speed="16.67" length="8.19" shape="2433.87,237.19 2434.94,239.38 2436.01,240.71 2437.06,242.06 2438.08,244.26"/>
    </edge>
    <edge id=":1492179367_0" function="internal">
        <lane id=":1492179367_0_0" index="0" allow="private emergency authority army vip passenger hov taxi bus coach delivery truck trailer motorcycle evehicle custom1 custom2" speed="15.28" length="24.97" shape="1045.36,475.13 1043.79,471.12 1041.69,466.04 1039.72,459.53 1038.56,451.24"/>
    </edge>
    <edge id=":1492179367_1" function="internal">
        <lane id=":1492179367_1_0" index="0" disallow="tram rail_urban rail rail_electric rail_fast ship" speed="16.67" length="25.60" shape="1042.07,475.87 1040.39,469.67 1038.34,464.70 1036.48,459.19 1035.37,451.42"/>
        <lane id=":1492179367_1_1" index="1" disallow="tram rail_urban rail rail_electric rail_fast ship" speed="16.67" length="25.60" shape="1038.90,476.34 1037.22,470.12 1035.16,465.08 1033.29,459.49 1032.17,451.61"/>
    </edge>
    <edge id=":1492179368_0" function="internal">
        <lane id=":1492179368_0_0" index="0" allow="private emergency authority army vip passenger hov taxi bus coach delivery truck trailer motorcycle evehicle custom1 custom2" speed="19.45" length="31.34" shape="1011.09,446.49 1014.43,477.54"/>
        <lane id=":1492179368_0_1" index="1" allow="private emergency authority army vip passenger hov taxi bus coach delivery truck trailer motorcycle evehicle custom1 custom2" speed="19.45" length="31.34" shape="1014.26,446.04 1017.61,477.20"/>
        <lane id=":1492179368_0_2" index="2" allow="private emergency authority army vip passenger hov taxi bus coach delivery truck trailer motorcycle evehicle custom1 custom2" speed="19.45" length="31.34" shape="1017.43,445.60 1020.79,476.86"/>
    </edge>
    <edge id=":1492179368_3" function="internal">
        <lane id=":1492179368_3_0" index="0" disallow="tram rail_urban rail rail_electric rail_fast ship" speed="16.67" length="31.36" shape="1020.60,445.16 1024.10,476.32"/>
        <lane id=":1492179368_3_1" index="1" disallow="tram rail_urban rail rail_electric rail_fast ship" speed="16.67" length="31.12" shape="1023.77,444.71 1027.23,475.64"/>
    </edge>
    <edge id=":1492179377_0" function="internal">
        <lane id=":1492179377_0_0" index="0" allow="private emergency authority army vip passenger hov taxi bus coach delivery truck trailer motorcycle evehicle custom1 custom2" speed="16.66" length="7.90" shape="1029.48,524.20 1029.41,526.46 1028.64,528.03 1027.95,529.57 1028.14,531.76"/>
    </edge>
    <edge id=":1492179378_0" function="internal">
        <lane id=":1492179378_0_0" index="0" allow="private emergency authority army vip passenger hov taxi bus coach delivery truck trailer motorcycle evehicle custom1 custom2" speed="19.45" length="2.99" shape="1572.67,534.70 1575.26,533.20"/>
    </edge>
    <edge id=":1492179378_1" function="internal">
        <lane id=":1492179378_1_0" index="0" allow="private emergency authority army vip passenger hov taxi bus coach delivery truck trailer motorcycle evehicle custom1 custom2" speed="25.00" length="3.00" shape="1571.09,531.90 1573.69,530.42"/>
        <lane id=":1492179378_1_1" index="1" allow="private emergency authority army vip passenger hov taxi bus coach delivery truck trailer motorcycle evehicle custom1 custom2" speed="25.00" length="3.00" shape="1569.51,529.11 1572.12,527.63"/>
        <lane id=":1492179378_1_2" index="2" allow="private emergency authority army vip passenger hov taxi bus coach delivery truck trailer motorcycle evehicle custom1 custom2" speed="25.00" length="3.00" shape="1567.93,526.33 1570.55,524.84"/>
    </edge>
    <edge id=":1492179401_0" function="internal">
        <lane id=":1492179401_0_0" index="0" allow="private emergency authority army vip passenger hov taxi bus coach delivery truck trailer motorcycle evehicle custom1 custom2" speed="13.89" length="8.17" shape="1108.84,627.03 1107.90,624.83 1107.62,623.17 1107.36,621.50 1106.49,619.26"/>
    </edge>
    <edge id=":1492179403_0" function="internal">
        <lane id=":1492179403_0_0" index="0" allow="private emergency authority army vip passenger hov taxi bus coach delivery truck trailer motorcycle evehicle custom1 custom2" speed="13.89" length="8.17" shape="1349.41,669.83 1351.58,668.82 1353.23,668.46 1354.88,668.09 1357.03,667.04"/>
    </edge>
    <edge id=":1492179413_0" function="internal">
        <lane id=":1492179413_0_0" index="0" allow="private emergency authority army vip passenger hov taxi bus coach delivery truck trailer motorcycle evehicle custom1 custom2" speed="25.00" length="7.94" shape="669.81,1035.74 672.06,1034.91 673.74,1034.67 675.39,1034.39 677.57,1033.43"/>
        <lane id=":1492179413_0_1" index="1" allow="private emergency authority army vip passenger hov taxi bus coach delivery truck trailer motorcycle evehicle custom1 custom2" speed="25.00" length="7.94" shape="668.40,1032.87 670.60,1032.06 672.23,1031.84 673.85,1031.58 675.97,1030.65"/>
        <lane id=":1492179413_0_2" index="2" allow="private emergency authority army vip passenger hov taxi bus coach delivery truck trailer motorcycle evehicle custom1 custom2" speed="25.00" length="7.94" shape="666.99,1029.99 669.13,1029.22 670.73,1029.02 672.30,1028.78 674.38,1027.88"/>
    </edge>
    <edge id=":1492186554_0" function="internal">
        <lane id=":1492186554_0_0" index="0" allow="private emergency authority army vip passenger hov taxi bus coach delivery truck trailer motorcycle evehicle custom1 custom2" speed="25.00" length="8.17" shape="1219.20,727.99 1221.44,727.08 1223.12,726.79 1224.79,726.49 1227.01,725.54"/>
        <lane id=":1492186554_0_1" index="1" allow="private emergency authority army vip passenger hov taxi bus coach delivery truck trailer motorcycle evehicle custom1 custom2" speed="25.00" length="8.17" shape="1217.69,725.17 1219.91,724.26 1221.58,723.99 1223.24,723.69 1225.44,722.75"/>
        <lane id=":1492186554_0_2" index="2" allow="private emergency authority army vip passenger hov taxi bus coach delivery truck trailer motorcycle evehicle custom1 custom2" speed="25.00" length="8.17" shape="1216.18,722.35 1218.38,721.45 1220.04,721.18 1221.69,720.90 1223.87,719.96"/>
    </edge>
    <edge id=":1492190450_0" function="internal">
        <lane id=":1492190450_0_0" index="0" allow="private emergency authority army vip passenger hov taxi bus coach delivery truck trailer motorcycle evehicle custom1 custom2" speed="25.00" length="8.13" shape="199.51,1121.80 197.15,1121.79 195.54,1121.39 193.93,1120.95 191.56,1120.83"/>
        <lane id=":1492190450_0_1" index="1" allow="private emergency authority army vip passenger hov taxi bus coach delivery truck trailer motorcycle evehicle custom1 custom2" speed="25.00" length="8.13" shape="199.84,1124.99 197.44,1124.98 195.80,1124.58 194.16,1124.14 191.74,1124.03"/>
    </edge>
    <edge id=":1507781011_0" function="internal">
        <lane id=":1507781011_0_0" index="0" disallow="tram rail_urban rail rail_electric rail_fast ship" speed="13.89" length="12.51" shape="1155.82,1614.68 1158.39,1616.82 1160.39,1618.92 1162.36,1621.06 1164.85,1623.31"/>
    </edge>
    <edge id=":1507781011_1" function="internal">
        <lane id=":1507781011_1_0" index="0" disallow="tram rail_urban rail rail_electric rail_fast ship" speed="10.35" length="12.89" shape="1159.70,1612.04 1159.88,1615.33 1160.80,1618.30 1162.46,1620.96 1164.85,1623.31"/>
    </edge>
    <edge id=":1507781014_0" function="internal">
        <lane id=":1507781014_0_0" index="0" disallow="tram rail_urban rail rail_electric rail_fast ship" speed="13.89" length="9.19" shape="1179.04,1629.72 1180.45,1627.38 1181.40,1625.76 1182.46,1624.22 1184.23,1622.16"/>
    </edge>
    <edge id=":1507781014_1" function="internal">
        <lane id=":1507781014_1_0" index="0" disallow="tram rail_urban rail rail_electric rail_fast ship" speed="10.33" length="9.33" shape="1176.27,1626.24 1178.97,1625.94 1180.79,1625.33 1182.34,1624.15 1184.23,1622.16"/>
    </edge>
    <edge id=":1704632540_0" function="internal">
        <lane id=":1704632540_0_0" index="0" disallow="tram rail_urban rail rail_electric rail_fast ship" speed="13.89" length="8.07" shape="938.48,179.75 940.88,180.16 942.47,180.79 944.07,181.38 946.47,181.65"/>
        <lane id=":1704632540_0_1" index="1" disallow="tram rail_urban rail rail_electric rail_fast ship" speed="13.89" length="8.07" shape="938.48,179.75 940.87,179.66 942.49,179.19 944.10,178.68 946.50,178.45"/>
        <lane id=":1704632540_0_2" index="2" disallow="tram rail_urban rail rail_electric rail_fast ship" speed="13.89" length="8.07" shape="938.69,176.56 941.03,176.46 942.61,175.99 944.19,175.48 946.53,175.25"/>
        <lane id=":1704632540_0_3" index="3" disallow="tram rail_urban rail rail_electric rail_fast ship" speed="13.89" length="8.07" shape="938.91,173.37 941.19,173.27 942.73,172.79 944.27,172.28 946.56,172.05"/>
    </edge>
    <edge id=":1704668047_0" function="internal">
        <lane id=":1704668047_0_0" index="0" disallow="tram rail_urban rail rail_electric rail_fast ship" speed="16.67" length="13.20" shape="1017.90,192.20 1016.67,205.55"/>
        <lane id=":1704668047_0_1" index="1" disallow="tram rail_urban rail rail_electric rail_fast ship" speed="16.67" length="13.20" shape="1021.08,192.57 1019.86,205.71"/>
        <lane id=":1704668047_0_2" index="2" disallow="tram rail_urban rail rail_electric rail_fast ship" speed="16.67" length="13.20" shape="1024.26,192.93 1023.06,205.88"/>
    </edge>
    <edge id=":1704668047_3" function="internal">
        <lane id=":1704668047_3_0" index="0" disallow="tram rail_urban rail rail_electric rail_fast ship" speed="12.09" length="13.27" shape="1011.83,193.72 1014.03,196.25 1015.62,198.64 1016.52,201.53 1016.67,205.55"/>
    </edge>
    <edge id=":1704668114_0" function="internal">
        <lane id=":1704668114_0_0" index="0" disallow="tram rail_urban rail rail_electric rail_fast ship" speed="13.89" length="6.63" shape="986.63,181.99 988.58,182.10 989.89,182.39 991.17,182.86 993.03,183.53"/>
    </edge>
    <edge id=":1704668114_1" function="internal">
        <lane id=":1704668114_1_0" index="0" disallow="tram rail_urban rail rail_electric rail_fast ship" speed="13.89" length="6.95" shape="986.66,178.79 988.73,178.99 990.12,179.39 991.51,179.77 993.57,179.91"/>
        <lane id=":1704668114_1_1" index="1" disallow="tram rail_urban rail rail_electric rail_fast ship" speed="13.89" length="6.95" shape="986.69,175.59 988.73,175.79 990.10,176.19 991.47,176.57 993.51,176.71"/>
        <lane id=":1704668114_1_2" index="2" disallow="tram rail_urban rail rail_electric rail_fast ship" speed="13.89" length="6.95" shape="986.71,172.39 988.73,172.59 990.09,172.99 991.44,173.37 993.46,173.52"/>
    </edge>