<?xml version="1.0" encoding="UTF-8"?>

<!-- generated on 2022-01-24 02:39:03 by Eclipse SUMO duarouter Version v1_10_0+0626-dea525ad83
<configuration xmlns:xsi="http://www.w3.org/2001/XMLSchema-instance" xsi:noNamespaceSchemaLocation="http://sumo.dlr.de/xsd/duarouterConfiguration.xsd">

    <input>
        <net-file value="/Users/corinnajiang/sumo/tools/2022-01-24-02-38-44/osm.net.xml"/>
        <route-files value="/Users/corinnajiang/sumo/tools/2022-01-24-02-38-44/osm.passenger.trips.xml"/>
    </input>

    <output>
        <output-file value="/Users/corinnajiang/sumo/tools/2022-01-24-02-38-44/osm.passenger.trips.xml.tmp"/>
        <write-trips value="true"/>
    </output>

    <time>
        <begin value="0"/>
        <end value="3600"/>
    </time>

    <report>
        <no-warnings value="true"/>
        <ignore-errors value="true"/>
        <no-step-log value="true"/>
    </report>

</configuration>
-->

<routes xmlns:xsi="http://www.w3.org/2001/XMLSchema-instance" xsi:noNamespaceSchemaLocation="http://sumo.dlr.de/xsd/routes_file.xsd">
    <vType id="veh_passenger" vClass="passenger"/>
    <vType id="RL" color="red"/>
    <trip id="vehicle_0" type="RL" depart="0.00" from="632695808" to="633554833#0"/>
    <trip id="veh0" type="veh_passenger" depart="0.00" departLane="best" from="632768098" to="-726509067#1"/>
    <trip id="veh2" type="veh_passenger" depart="5.98" departLane="best" from="635370012#0" to="633786772"/>
    <trip id="veh5" type="veh_passenger" depart="14.95" departLane="best" departSpeed="max" from="44819830#0" to="632363398"/>
    <trip id="veh6" type="veh_passenger" depart="17.95" departLane="best" from="-633447301#1" to="370372732#0"/>
    <trip id="veh7" type="veh_passenger" depart="20.94" departLane="best" from="633022837#0" to="632391050"/>
    <trip id="veh10" type="veh_passenger" depart="29.91" departLane="best" from="654908392" to="635374653"/>
    <trip id="veh11" type="veh_passenger" depart="32.90" departLane="best" from="479358021#0" to="22945418"/>
    <trip id="veh12" type="veh_passenger" depart="35.89" departLane="best" from="75046500#0" to="479558173"/>
    <trip id="veh13" type="veh_passenger" depart="38.88" departLane="best" from="173767592#0" to="173767593"/>
    <trip id="veh14" type="veh_passenger" depart="41.87" departLane="best" departSpeed="max" from="667450562" to="632786478#0"/>
    <trip id="veh15" type="veh_passenger" depart="44.86" departLane="best" from="654985163#0" to="637956520"/>
    <trip id="veh17" type="veh_passenger" depart="50.85" departLane="best" departSpeed="max" from="481102224" to="632448575"/>
    <trip id="veh18" type="veh_passenger" depart="53.84" departLane="best" departSpeed="max" from="655145891#0" to="633143918#0"/>
    <trip id="veh19" type="veh_passenger" depart="56.83" departLane="best" from="681187053#0" to="632697488"/>
    <trip id="veh20" type="veh_passenger" depart="59.82" departLane="best" from="633571299" to="135956129#0"/>
    <trip id="veh23" type="veh_passenger" depart="68.79" departLane="best" from="173767598#0" to="479330603"/>
    <trip id="veh24" type="veh_passenger" depart="71.78" departLane="best" from="479555654" to="370372743"/>
    <trip id="veh25" type="veh_passenger" depart="74.77" departLane="best" departSpeed="max" from="465472919#0" to="75237303"/>
    <trip id="veh26" type="veh_passenger" depart="77.77" departLane="best" from="325024311" to="637956520"/>
    <trip id="veh27" type="veh_passenger" depart="80.76" departLane="best" from="253016584#0" to="482092103#0"/>
    <trip id="veh28" type="veh_passenger" depart="83.75" departLane="best" from="754775915" to="633439943"/>
    <trip id="veh29" type="veh_passenger" depart="86.74" departLane="best" departSpeed="max" from="632452087" to="634535275"/>
    <trip id="veh30" type="veh_passenger" depart="89.73" departLane="best" departSpeed="max" from="667450562" to="649108428"/>
    <trip id="veh31" type="veh_passenger" depart="92.72" departLane="best" from="44819830#1-AddedOnRampEdge" to="128019940#0"/>
    <trip id="veh32" type="veh_passenger" depart="95.71" departLane="best" from="479337795#0" to="479326470#0"/>
    <trip id="veh35" type="veh_passenger" depart="104.68" departLane="best" from="633045424" to="512870465#0"/>
    <trip id="veh36" type="veh_passenger" depart="107.68" departLane="best" from="726878552" to="631541960"/>
    <trip id="veh37" type="veh_passenger" depart="110.67" departLane="best" departSpeed="max" from="465472919#0" to="465466221#0"/>
    <trip id="veh38" type="veh_passenger" depart="113.66" departLane="best" from="632452091" to="465523230#0"/>
    <trip id="veh40" type="veh_passenger" depart="119.64" departLane="best" departSpeed="max" from="482084681" to="370372743"/>
    <trip id="veh41" type="veh_passenger" depart="122.63" departLane="best" from="825637535" to="632390084"/>
    <trip id="veh42" type="veh_passenger" depart="125.62" departLane="best" from="173767592#0" to="135956129#0"/>
    <trip id="veh43" type="veh_passenger" depart="128.61" departLane="best" from="175014498#0" to="633165502#2"/>
    <trip id="veh44" type="veh_passenger" depart="131.60" departLane="best" from="650118634" to="537928315"/>
    <trip id="veh45" type="veh_passenger" depart="134.59" departLane="best" from="158232311" to="482092103#0"/>
    <trip id="veh47" type="veh_passenger" depart="140.58" departLane="best" from="75321764#0" to="717454479"/>
    <trip id="veh48" type="veh_passenger" depart="143.57" departLane="best" departSpeed="max" from="-253016587#2" to="635634181#0"/>
    <trip id="veh49" type="veh_passenger" depart="146.56" departLane="best" departSpeed="max" from="465472919#0" to="633439943"/>
    <trip id="veh52" type="veh_passenger" depart="155.53" departLane="best" from="711671816" to="465523231#0"/>
    <trip id="veh54" type="veh_passenger" depart="161.51" departLane="best" from="479330602" to="633439943"/>
    <trip id="veh55" type="veh_passenger" depart="164.50" departLane="best" departSpeed="max" from="649073915" to="632390288"/>
    <trip id="veh56" type="veh_passenger" depart="167.50" departLane="best" departSpeed="max" from="-135956869" to="479555648"/>
    <trip id="veh58" type="veh_passenger" depart="173.48" departLane="best" from="479330604" to="136809242"/>
    <trip id="veh60" type="veh_passenger" depart="179.46" departLane="best" from="163766418" to="632094162#0"/>
    <trip id="veh61" type="veh_passenger" depart="182.45" departLane="best" from="162157958#0" to="645259309"/>
    <trip id="veh62" type="veh_passenger" depart="185.44" departLane="best" from="639993324#0" to="175847334#0"/>
    <trip id="veh63" type="veh_passenger" depart="188.43" departLane="best" from="630386481" to="632394979#0"/>
    <trip id="veh68" type="veh_passenger" depart="203.39" departLane="best" from="537146049#0" to="632390245"/>
    <trip id="veh69" type="veh_passenger" depart="206.38" departLane="best" departSpeed="max" from="200159283" to="387106334#0"/>
    <trip id="veh70" type="veh_passenger" depart="209.37" departLane="best" from="479358019#1" to="632697531#0"/>
    <trip id="veh72" type="veh_passenger" depart="215.35" departLane="best" from="162157963#0" to="633273647"/>
    <trip id="veh73" type="veh_passenger" depart="218.34" departLane="best" from="44819830#1-AddedOnRampEdge" to="744220872"/>
    <trip id="veh75" type="veh_passenger" depart="224.32" departLane="best" departSpeed="max" from="465451888" to="633571299"/>
    <trip id="veh76" type="veh_passenger" depart="227.32" departLane="best" departSpeed="max" from="44819830#0" to="176204395"/>
    <trip id="veh77" type="veh_passenger" depart="230.31" departLane="best" from="741982929" to="632689469"/>
    <trip id="veh80" type="veh_passenger" depart="239.28" departLane="best" from="173767597#0" to="599212489#0"/>
    <trip id="veh82" type="veh_passenger" depart="245.26" departLane="best" from="75406314-AddedOffRampEdge" to="173767597#0"/>
    <trip id="veh83" type="veh_passenger" depart="248.25" departLane="best" from="482092102" to="479558173"/>
    <trip id="veh84" type="veh_passenger" depart="251.24" departLane="best" from="681187053#0" to="465466221#0"/>
    <trip id="veh85" type="veh_passenger" depart="254.23" departLane="best" from="370372732#0" to="630181598"/>
    <trip id="veh87" type="veh_passenger" depart="260.22" departLane="best" from="465466224" to="74931349#0"/>
    <trip id="veh88" type="veh_passenger" depart="263.21" departLane="best" from="537928315" to="717454479"/>
    <trip id="veh89" type="veh_passenger" depart="266.20" departLane="best" from="632448575" to="135956133#0"/>
    <trip id="veh91" type="veh_passenger" depart="272.18" departLane="best" from="75321763#0" to="75046500#0"/>
    <trip id="veh92" type="veh_passenger" depart="275.17" departLane="best" departSpeed="max" from="667450562" to="244362467#0"/>
    <trip id="veh93" type="veh_passenger" depart="278.16" departLane="best" departSpeed="max" from="631544546#0" to="370372743"/>
    <trip id="veh94" type="veh_passenger" depart="281.15" departLane="best" from="482092102" to="136809242"/>
    <trip id="veh95" type="veh_passenger" depart="284.14" departLane="best" departSpeed="max" from="481102224" to="825637535"/>
    <trip id="veh96" type="veh_passenger" depart="287.14" departLane="best" departSpeed="max" from="465472919#0" to="649497753"/>
    <trip id="veh97" type="veh_passenger" depart="290.13" departLane="best" from="601555279" to="539184143#0"/>
    <trip id="veh98" type="veh_passenger" depart="293.12" departLane="best" from="75046500#0" to="826473086"/>
    <trip id="veh101" type="veh_passenger" depart="302.09" departLane="best" from="75321749#0" to="632697488"/>
    <trip id="veh103" type="veh_passenger" depart="308.07" departLane="best" from="632094162#0" to="711671820"/>
    <trip id="veh105" type="veh_passenger" depart="314.05" departLane="best" from="162780471" to="325024315"/>
    <trip id="veh106" type="veh_passenger" depart="317.05" departLane="best" departSpeed="max" from="632695808" to="633786772"/>
    <trip id="veh107" type="veh_passenger" depart="320.04" departLane="best" from="465451884#0" to="175014493"/>
    <trip id="veh108" type="veh_passenger" depart="323.03" departLane="best" from="717459612" to="465466217#0"/>
    <trip id="veh109" type="veh_passenger" depart="326.02" departLane="best" departSpeed="max" from="632695808" to="633143918#0"/>
    <trip id="veh110" type="veh_passenger" depart="329.01" departLane="best" departSpeed="max" from="512870313" to="632697490"/>
    <trip id="veh113" type="veh_passenger" depart="337.98" departLane="best" departSpeed="max" from="465451888" to="512870465#0"/>
    <trip id="veh114" type="veh_passenger" depart="340.97" departLane="best" from="633165502#2" to="479340127"/>
    <trip id="veh116" type="veh_passenger" depart="346.96" departLane="best" from="162157965#0" to="631541960"/>
    <trip id="veh117" type="veh_passenger" depart="349.95" departLane="best" from="825637535" to="826473086"/>
    <trip id="veh118" type="veh_passenger" depart="352.94" departLane="best" from="162158298#0" to="370372743"/>
    <trip id="veh119" type="veh_passenger" depart="355.93" departLane="best" departSpeed="max" from="465472919#0" to="75237303"/>
    <trip id="veh120" type="veh_passenger" depart="358.92" departLane="best" from="711695942" to="726878552"/>
    <trip id="veh121" type="veh_passenger" depart="361.91" departLane="best" from="479555653" to="22945418"/>
    <trip id="veh124" type="veh_passenger" depart="370.88" departLane="best" from="633045424" to="-632242992"/>
    <trip id="veh125" type="veh_passenger" depart="373.87" departLane="best" departSpeed="max" from="633165287#0" to="75237303"/>
    <trip id="veh126" type="veh_passenger" depart="376.87" departLane="best" from="200159357#0" to="175014493"/>
    <trip id="veh128" type="veh_passenger" depart="382.85" departLane="best" departSpeed="max" from="465472934" to="632786478#0"/>
    <trip id="veh129" type="veh_passenger" depart="385.84" departLane="best" departSpeed="max" from="633802463" to="370372733"/>
    <trip id="veh130" type="veh_passenger" depart="388.83" departLane="best" departSpeed="max" from="632733518#0" to="465523231#0"/>
    <trip id="veh131" type="veh_passenger" depart="391.82" departLane="best" departSpeed="max" from="631544546#0" to="744220872"/>
    <trip id="veh132" type="veh_passenger" depart="394.81" departLane="best" departSpeed="max" from="667450562" to="173767591#0"/>
    <trip id="veh134" type="veh_passenger" depart="400.79" departLane="best" departSpeed="max" from="-135956869" to="649108428"/>
    <trip id="veh135" type="veh_passenger" depart="403.78" departLane="best" from="632758380#0" to="465523230#0"/>
    <trip id="veh136" type="veh_passenger" depart="406.78" departLane="best" from="635395363" to="632448575"/>
    <trip id="veh138" type="veh_passenger" depart="412.76" departLane="best" from="162514284#0" to="727552332"/>
    <trip id="veh139" type="veh_passenger" depart="415.75" departLane="best" departSpeed="max" from="724474098" to="632391051#0"/>
    <trip id="veh142" type="veh_passenger" depart="424.72" departLane="best" from="651079760" to="717454479"/>
    <trip id="veh143" type="veh_passenger" depart="427.71" departLane="best" departSpeed="max" from="724474098" to="370372743"/>
    <trip id="veh145" type="veh_passenger" depart="433.69" departLane="best" departSpeed="max" from="649073915" to="727552332"/>
    <trip id="veh146" type="veh_passenger" depart="436.69" departLane="best" from="482092103#0" to="633149460#0"/>
    <trip id="veh147" type="veh_passenger" depart="439.68" departLane="best" from="22945654" to="75237303"/>
    <trip id="veh148" type="veh_passenger" depart="442.67" departLane="best" from="711668517" to="754771902"/>
    <trip id="veh150" type="veh_passenger" depart="448.65" departLane="best" departSpeed="max" from="-632716930" to="640026530#0"/>
    <trip id="veh151" type="veh_passenger" depart="451.64" departLane="best" departSpeed="max" from="479358016#0" to="75237303"/>
    <trip id="veh152" type="veh_passenger" depart="454.63" departLane="best" from="654908387#0" to="717459612"/>
    <trip id="veh154" type="veh_passenger" depart="460.61" departLane="best" from="649497753" to="173767918#0"/>
    <trip id="veh155" type="veh_passenger" depart="463.60" departLane="best" from="711668532" to="717454476#2"/>
    <trip id="veh156" type="veh_passenger" depart="466.60" departLane="best" departSpeed="max" from="44819830#0" to="655144777"/>
    <trip id="veh157" type="veh_passenger" depart="469.59" departLane="best" from="601555283" to="479358021#0"/>
    <trip id="veh159" type="veh_passenger" depart="475.57" departLane="best" departSpeed="max" from="-632716930" to="325024341#0"/>
    <trip id="veh160" type="veh_passenger" depart="478.56" departLane="best" departSpeed="max" from="479358016#0" to="717459612"/>
    <trip id="veh161" type="veh_passenger" depart="481.55" departLane="best" from="75310664#0" to="479330603"/>
    <trip id="veh162" type="veh_passenger" depart="484.54" departLane="best" from="632786478#0" to="512870468#0"/>
    <trip id="veh163" type="veh_passenger" depart="487.53" departLane="best" from="75406314" to="632390288"/>
    <trip id="veh164" type="veh_passenger" depart="490.52" departLane="best" from="744220872" to="175014493"/>
    <trip id="veh169" type="veh_passenger" depart="505.48" departLane="best" from="632710849" to="632390084"/>
    <trip id="veh170" type="veh_passenger" depart="508.47" departLane="best" from="481121856#0" to="632697488"/>
    <trip id="veh171" type="veh_passenger" depart="511.46" departLane="best" from="465466233#0" to="635395363"/>
    <trip id="veh172" type="veh_passenger" depart="514.45" departLane="best" departSpeed="max" from="-135956869" to="75046500#0"/>
    <trip id="veh173" type="veh_passenger" depart="517.44" departLane="best" from="635395363" to="633601176"/>
    <trip id="veh174" type="veh_passenger" depart="520.43" departLane="best" from="479555651" to="162157841"/>
    <trip id="veh177" type="veh_passenger" depart="529.41" departLane="best" departSpeed="max" from="633802463" to="479358019#0"/>
    <trip id="veh178" type="veh_passenger" depart="532.40" departLane="best" from="479331229#0" to="537146049#0"/>
    <trip id="veh180" type="veh_passenger" depart="538.38" departLane="best" departSpeed="max" from="200159283" to="537928301"/>
    <trip id="veh181" type="veh_passenger" depart="541.37" departLane="best" from="744220873" to="633786772"/>
    <trip id="veh182" type="veh_passenger" depart="544.36" departLane="best" departSpeed="max" from="724474098" to="633045424"/>
    <trip id="veh183" type="veh_passenger" depart="547.35" departLane="best" from="479330603" to="632393390"/>
    <trip id="veh184" type="veh_passenger" depart="550.34" departLane="best" departSpeed="max" from="-135956869" to="479331229#0"/>
    <trip id="veh185" type="veh_passenger" depart="553.33" departLane="best" from="512870468#0" to="632697488"/>
    <trip id="veh186" type="veh_passenger" depart="556.33" departLane="best" from="633045424" to="631549246#0"/>
    <trip id="veh187" type="veh_passenger" depart="559.32" departLane="best" from="537146053#0" to="370372743"/>
    <trip id="veh189" type="veh_passenger" depart="565.30" departLane="best" from="651079760" to="244362468"/>
    <trip id="veh190" type="veh_passenger" depart="568.29" departLane="best" from="163122971#5" to="632390245"/>
    <trip id="veh191" type="veh_passenger" depart="571.28" departLane="best" departSpeed="max" from="632733518#0" to="479558173"/>
    <trip id="veh193" type="veh_passenger" depart="577.26" departLane="best" departSpeed="max" from="633202334#0" to="387106334#0"/>
    <trip id="veh194" type="veh_passenger" depart="580.25" departLane="best" departSpeed="max" from="370373735#0" to="-681397019"/>
    <trip id="veh195" type="veh_passenger" depart="583.24" departLane="best" from="465466216" to="631549246#0"/>
    <trip id="veh196" type="veh_passenger" depart="586.23" departLane="best" departSpeed="max" from="667450562" to="162157959#0"/>
    <trip id="veh197" type="veh_passenger" depart="589.23" departLane="best" from="512870242#0" to="633273647"/>
    <trip id="veh198" type="veh_passenger" depart="592.22" departLane="best" departSpeed="max" from="370372746" to="635374653"/>
    <trip id="veh199" type="veh_passenger" depart="595.21" departLane="best" from="632084608#2" to="465466216"/>
    <trip id="veh200" type="veh_passenger" depart="598.20" departLane="best" from="633143918#0" to="-512870330"/>
    <trip id="veh201" type="veh_passenger" depart="601.19" departLane="best" from="635403808" to="646650306"/>
    <trip id="veh202" type="veh_passenger" depart="604.18" departLane="best" from="173767918#0" to="543315302#0"/>
    <trip id="veh204" type="veh_passenger" depart="610.16" departLane="best" from="632362317" to="135956133#0"/>
    <trip id="veh206" type="veh_passenger" depart="616.14" departLane="best" from="601555281" to="654908392"/>
    <trip id="veh207" type="veh_passenger" depart="619.14" departLane="best" from="633165500#0" to="826473086"/>
    <trip id="veh208" type="veh_passenger" depart="622.13" departLane="best" departSpeed="max" from="632695808" to="75321764#0"/>
    <trip id="veh209" type="veh_passenger" depart="625.12" departLane="best" from="719082877" to="633044054"/>
    <trip id="veh210" type="veh_passenger" depart="628.11" departLane="best" departSpeed="max" from="633802463" to="632363398"/>
    <trip id="veh211" type="veh_passenger" depart="631.10" departLane="best" departSpeed="max" from="655145891#0" to="632393390"/>
    <trip id="veh212" type="veh_passenger" depart="634.09" departLane="best" from="630386481" to="465472912"/>
    <trip id="veh213" type="veh_passenger" depart="637.08" departLane="best" from="465466217#0" to="633439943"/>
    <trip id="veh214" type="veh_passenger" depart="640.07" departLane="best" from="639993324#0" to="632390288"/>
    <trip id="veh215" type="veh_passenger" depart="643.06" departLane="best" departSpeed="max" from="632733518#0" to="479330601#0"/>
    <trip id="veh216" type="veh_passenger" depart="646.05" departLane="best" from="162780471" to="479331229#0"/>
    <trip id="veh219" type="veh_passenger" depart="655.03" departLane="best" from="465283774#0" to="635372399#0"/>
    <trip id="veh221" type="veh_passenger" depart="661.01" departLane="best" departSpeed="max" from="512870313" to="370372733"/>
    <trip id="veh223" type="veh_passenger" depart="666.99" departLane="best" departSpeed="max" from="632690149" to="635372399#0"/>
    <trip id="veh224" type="veh_passenger" depart="669.98" departLane="best" departSpeed="max" from="667450562" to="646147801#0"/>
    <trip id="veh227" type="veh_passenger" depart="678.96" departLane="best" departSpeed="max" from="667450562" to="75383257"/>
    <trip id="veh229" type="veh_passenger" depart="684.94" departLane="best" from="632393390" to="632768098"/>
    <trip id="veh230" type="veh_passenger" depart="687.93" departLane="best" from="536655883#0" to="105827140"/>
    <trip id="veh231" type="veh_passenger" depart="690.92" departLane="best" from="479358019#0" to="633800290"/>
    <trip id="veh232" type="veh_passenger" depart="693.91" departLane="best" from="482092103#0" to="244362467#0"/>
    <trip id="veh233" type="veh_passenger" depart="696.90" departLane="best" from="617971358#0" to="175847334#0"/>
    <trip id="veh235" type="veh_passenger" depart="702.88" departLane="best" departSpeed="max" from="482084681" to="632515064"/>
    <trip id="veh236" type="veh_passenger" depart="705.87" departLane="best" from="-633559626" to="633439943"/>
    <trip id="veh237" type="veh_passenger" depart="708.87" departLane="best" from="22752250#0" to="631541960"/>
    <trip id="veh238" type="veh_passenger" depart="711.86" departLane="best" departSpeed="max" from="135957333" to="482092103#0"/>
    <trip id="veh240" type="veh_passenger" depart="717.84" departLane="best" from="637956520" to="482092103#0"/>
    <trip id="veh241" type="veh_passenger" depart="720.83" departLane="best" from="635403808" to="671428531#0"/>
    <trip id="veh242" type="veh_passenger" depart="723.82" departLane="best" from="-632093861" to="632390289#0"/>
    <trip id="veh243" type="veh_passenger" depart="726.81" departLane="best" from="825637535" to="481102223"/>
    <trip id="veh244" type="veh_passenger" depart="729.80" departLane="best" from="633022837#0" to="649497753"/>
    <trip id="veh248" type="veh_passenger" depart="741.77" departLane="best" departSpeed="max" from="200159283" to="633571299"/>
    <trip id="veh249" type="veh_passenger" depart="744.76" departLane="best" from="632507122#0" to="370372743"/>
    <trip id="veh250" type="veh_passenger" depart="747.75" departLane="best" from="633554833#0" to="646147801#0"/>
    <trip id="veh253" type="veh_passenger" depart="756.72" departLane="best" from="173767918#0" to="-726919112#1"/>
    <trip id="veh254" type="veh_passenger" depart="759.71" departLane="best" from="479337794" to="633786772"/>
    <trip id="veh255" type="veh_passenger" depart="762.70" departLane="best" from="75046500#0" to="512870465#0"/>
    <trip id="veh256" type="veh_passenger" depart="765.69" departLane="best" from="633800290" to="162158298#0"/>
    <trip id="veh257" type="veh_passenger" depart="768.69" departLane="best" from="633273647" to="633165502#0"/>
    <trip id="veh258" type="veh_passenger" depart="771.68" departLane="best" from="173767598#0" to="649108428"/>
    <trip id="veh259" type="veh_passenger" depart="774.67" departLane="best" departSpeed="max" from="667450562" to="632768098"/>
    <trip id="veh260" type="veh_passenger" depart="777.66" departLane="best" departSpeed="max" from="200159283" to="801440869"/>
    <trip id="veh261" type="veh_passenger" depart="780.65" departLane="best" departSpeed="max" from="649073915" to="479558174"/>
    <trip id="veh262" type="veh_passenger" depart="783.64" departLane="best" from="512870468#0" to="482092100"/>
    <trip id="veh263" type="veh_passenger" depart="786.63" departLane="best" from="632107072" to="479558173"/>
    <trip id="veh264" type="veh_passenger" depart="789.62" departLane="best" departSpeed="max" from="667450562" to="666939841"/>
    <trip id="veh266" type="veh_passenger" depart="795.60" departLane="best" departSpeed="max" from="632733518#0" to="666939845#0"/>
    <trip id="veh268" type="veh_passenger" depart="801.59" departLane="best" from="634535275-AddedOffRampEdge" to="75408655#0"/>
    <trip id="veh271" type="veh_passenger" depart="810.56" departLane="best" from="536655883#0" to="639064083"/>
    <trip id="veh272" type="veh_passenger" depart="813.55" departLane="best" departSpeed="max" from="465472919#0" to="711671819#0"/>
    <trip id="veh273" type="veh_passenger" depart="816.54" departLane="best" from="711695942" to="465466216"/>
    <trip id="veh274" type="veh_passenger" depart="819.53" departLane="best" from="617971353#0" to="633016089"/>
    <trip id="veh275" type="veh_passenger" depart="822.52" departLane="best" departSpeed="max" from="481102224" to="105827140"/>
    <trip id="veh276" type="veh_passenger" depart="825.51" departLane="best" departSpeed="max" from="44819830#0" to="654908387#0"/>
    <trip id="veh277" type="veh_passenger" depart="828.51" departLane="best" from="479358021#0" to="727552332"/>
    <trip id="veh278" type="veh_passenger" depart="831.50" departLane="best" from="633559626" to="479330602"/>
    <trip id="veh279" type="veh_passenger" depart="834.49" departLane="best" departSpeed="max" from="-253016587#2" to="75321749#0"/>
    <trip id="veh282" type="veh_passenger" depart="843.46" departLane="best" from="633273647" to="633439943"/>
    <trip id="veh283" type="veh_passenger" depart="846.45" departLane="best" from="632084608#0" to="652018166#0"/>
    <trip id="veh285" type="veh_passenger" depart="852.43" departLane="best" from="633273647" to="479361798#0"/>
    <trip id="veh286" type="veh_passenger" depart="855.42" departLane="best" departSpeed="max" from="632690149" to="631549246#0"/>
    <trip id="veh287" type="veh_passenger" depart="858.42" departLane="best" from="632390245" to="543315302#0"/>
    <trip id="veh289" type="veh_passenger" depart="864.40" departLane="best" from="633571299" to="479330600#0"/>
    <trip id="veh290" type="veh_passenger" depart="867.39" departLane="best" from="465466224" to="175014493"/>
    <trip id="veh291" type="veh_passenger" depart="870.38" departLane="best" departSpeed="max" from="370372746" to="175014493"/>
    <trip id="veh292" type="veh_passenger" depart="873.37" departLane="best" from="632390287" to="645259309"/>
    <trip id="veh294" type="veh_passenger" depart="879.35" departLane="best" departSpeed="max" from="631544546#0" to="635634181#2-AddedOnRampEdge"/>
    <trip id="veh296" type="veh_passenger" depart="885.33" departLane="best" departSpeed="max" from="465523234#0" to="173767597#0"/>
    <trip id="veh298" type="veh_passenger" depart="891.32" departLane="best" from="325024341#0" to="-633559626"/>
    <trip id="veh299" type="veh_passenger" depart="894.31" departLane="best" from="632390287" to="479330601#0"/>
    <trip id="veh302" type="veh_passenger" depart="903.28" departLane="best" from="711668527#0" to="632107072"/>
    <trip id="veh306" type="veh_passenger" depart="915.24" departLane="best" from="744220873" to="632084608#0"/>
    <trip id="veh307" type="veh_passenger" depart="918.24" departLane="best" from="655144777" to="512870468#0"/>
    <trip id="veh308" type="veh_passenger" depart="921.23" departLane="best" from="162514282" to="633273647"/>
    <trip id="veh309" type="veh_passenger" depart="924.22" departLane="best" departSpeed="max" from="135957333" to="22904181#0"/>
    <trip id="veh310" type="veh_passenger" depart="927.21" departLane="best" from="632507121#0" to="479358021#0"/>
    <trip id="veh311" type="veh_passenger" depart="930.20" departLane="best" from="784988976" to="175014493"/>
    <trip id="veh312" type="veh_passenger" depart="933.19" departLane="best" from="639064083" to="632786480#0"/>
    <trip id="veh315" type="veh_passenger" depart="942.16" departLane="best" from="537928315" to="717454476#2"/>
    <trip id="veh316" type="veh_passenger" depart="945.15" departLane="best" from="754775915" to="479358021#0"/>
    <trip id="veh318" type="veh_passenger" depart="951.14" departLane="best" from="635395363" to="75321749#0"/>
    <trip id="veh319" type="veh_passenger" depart="954.13" departLane="best" from="44818693" to="370372743"/>
    <trip id="veh320" type="veh_passenger" depart="957.12" departLane="best" from="633149460#0" to="22945418"/>
    <trip id="veh321" type="veh_passenger" depart="960.11" departLane="best" from="325024315" to="162157965#0"/>
    <trip id="veh322" type="veh_passenger" depart="963.10" departLane="best" departSpeed="max" from="-135956869" to="630386480"/>
    <trip id="veh323" type="veh_passenger" depart="966.09" departLane="best" departSpeed="max" from="632695808" to="479337795#0"/>
    <trip id="veh324" type="veh_passenger" depart="969.08" departLane="best" from="465283774#0" to="635374653"/>
    <trip id="veh325" type="veh_passenger" depart="972.07" departLane="best" from="633571299" to="630386481"/>
    <trip id="veh326" type="veh_passenger" depart="975.06" departLane="best" departSpeed="max" from="633202334#0" to="74931349#0"/>
    <trip id="veh327" type="veh_passenger" depart="978.06" departLane="best" from="649497753" to="633165500#0"/>
    <trip id="veh328" type="veh_passenger" depart="981.05" departLane="best" from="633160246#0" to="75237303"/>
    <trip id="veh329" type="veh_passenger" depart="984.04" departLane="best" from="633016089" to="744220873"/>
    <trip id="veh330" type="veh_passenger" depart="987.03" departLane="best" departSpeed="max" from="655145891#0" to="162157957#0"/>
    <trip id="veh333" type="veh_passenger" depart="996.00" departLane="best" departSpeed="max" from="465523234#0" to="175014498#0"/>