<?xml version="1.0" encoding="UTF-8"?>

<!-- generated on 2022-01-22 15:32:35 by Eclipse SUMO polyconvert Version v1_10_0+0626-dea525ad83
<configuration xmlns:xsi="http://www.w3.org/2001/XMLSchema-instance" xsi:noNamespaceSchemaLocation="http://sumo.dlr.de/xsd/polyconvertConfiguration.xsd">

    <input>
        <net-file value="osm.net.xml"/>
        <osm-files value="osm_bbox.osm.xml"/>
        <osm.keep-full-type value="true"/>
        <type-file value="/Users/corinnajiang/sumo/data/typemap/osmPolyconvert.typ.xml"/>
    </input>

    <output>
        <output-file value="osm.poly.xml"/>
    </output>

    <processing>
        <poi-layer-offset value="5"/>
    </processing>

    <report>
        <verbose value="true"/>
    </report>

</configuration>
-->

<additional xmlns:xsi="http://www.w3.org/2001/XMLSchema-instance" xsi:noNamespaceSchemaLocation="http://sumo.dlr.de/xsd/additional_file.xsd">
    <location netOffset="-352611.22,-142477.59" convBoundary="0.00,-0.00,16061.20,6964.34" origBoundary="103.675220,1.288762,103.819580,1.351702" projParameter="+proj=utm +zone=48 +ellps=WGS84 +datum=WGS84 +units=m +no_defs"/>

    <poly id="102746805" type="amenity.parking" color="184,184,179" fill="1" layer="-1.00" shape="3011.214889,6220.442037 3018.453690,6210.874817 3029.917900,6195.711056 3040.614874,6181.575905 3049.743989,6169.497989 3057.927952,6158.680952 3064.540201,6163.608378 3076.139751,6172.789683 3078.109798,6173.750501 3082.729469,6177.197493 3036.027538,6238.958566 3011.214889,6220.442037"/>
    <poly id="102746805#1" type="building.garage" color="255,230,230" fill="1" layer="-1.00" shape="3011.214889,6220.442037 3018.453690,6210.874817 3029.917900,6195.711056 3040.614874,6181.575905 3049.743989,6169.497989 3057.927952,6158.680952 3064.540201,6163.608378 3076.139751,6172.789683 3078.109798,6173.750501 3082.729469,6177.197493 3036.027538,6238.958566 3011.214889,6220.442037"/>
    <poly id="102746806" type="building.residential" color="255,230,230" fill="1" layer="-1.00" shape="2260.615717,5314.066336 2254.028814,5315.031703 2253.582115,5312.013666 2247.217742,5312.945747 2247.720237,5316.262265 2240.832924,5317.283071 2240.218750,5313.203752 2238.449636,5313.470035 2237.679114,5308.329427 2241.439878,5307.774631 2241.562697,5308.559539 2243.187166,5308.315445 2242.639998,5304.689384 2243.875038,5304.500776 2243.428374,5301.549075 2240.434137,5299.726434 2231.733200,5301.013547 2230.738433,5292.677888 2234.465622,5291.758264 2234.800612,5293.958221 2237.749141,5293.525472 2237.391785,5291.115465 2238.604576,5290.937925 2238.314254,5289.036456 2236.478375,5289.302774 2236.042868,5286.406346 2240.326579,5285.773882 2239.924572,5283.098555 2237.498988,5283.453634 2237.711143,5284.835515 2233.905875,5285.401390 2233.057198,5279.763306 2234.525896,5279.541407 2233.945234,5275.705300 2240.843676,5274.684489 2241.212183,5277.138714 2247.064733,5276.273241 2246.696237,5273.841128 2253.594679,5272.820317 2254.152998,5276.490596 2255.376917,5276.313050 2256.214430,5281.884804 2252.442545,5282.450661 2252.286209,5281.411485 2250.272310,5281.711065 2250.696666,5284.563275 2254.635451,5283.975217 2255.048638,5286.750041 2248.272587,5287.748676 2248.875621,5291.805889 2249.988272,5291.639459 2251.322548,5289.737127 2253.459741,5291.117985 2261.860263,5289.875257 2263.300787,5299.460000 2258.994822,5300.092476 2258.704477,5298.146784 2256.078618,5298.535137 2256.391301,5300.635601 2255.779342,5300.724374 2256.147849,5303.178599 2255.279983,5303.311731 2255.670810,5305.887560 2261.100553,5305.088647 2261.815255,5309.886550 2260.035014,5310.152838 2260.615717,5314.066336"/>
    <poly id="102746807" type="building.residential" color="255,230,230" fill="1" layer="-1.00" shape="3093.188947,6134.914109 3091.496137,6132.173140 3090.906325,6132.051838 3090.684336,6133.102268 3089.048438,6132.760404 3088.393558,6135.834297 3083.185390,6134.742527 3083.041088,6135.405959 3078.623047,6134.479608 3079.544307,6130.134143 3066.490507,6127.410265 3065.391663,6132.607131 3068.463144,6133.246742 3067.752810,6136.663398 3059.350748,6134.909971 3058.462818,6139.155915 3055.324560,6138.494227 3052.063896,6137.821549 3052.308075,6136.649492 3048.769198,6135.921681 3050.334345,6128.756614 3051.322069,6123.847261 3051.810432,6121.514203 3053.053568,6115.631794 3056.136177,6116.271400 3056.391465,6115.066169 3060.976434,6116.025598 3063.491490,6116.554947 3062.548046,6121.033095 3066.921566,6121.937357 3067.121364,6121.008554 3065.997382,6120.776976 3067.307105,6114.562855 3086.904494,6118.643136 3085.550384,6125.089455 3084.059158,6124.780681 3083.814956,6125.908515 3089.000863,6126.989240 3089.233938,6125.861413 3088.276883,6125.662915 3088.454468,6124.811515 3087.553055,6124.624043 3088.696274,6119.172868 3091.734368,6119.801442 3091.956368,6118.773124 3099.112029,6120.261873 3098.101985,6125.049621 3099.459724,6125.435857 3100.550789,6126.540870 3101.464022,6128.032933 3102.232946,6130.177373 3102.589913,6131.857683 3107.141468,6132.761851 3105.698710,6139.904739 3104.819563,6139.739367 3104.142558,6143.056502 3100.614745,6142.207070 3098.778620,6141.986927 3098.989511,6140.991782 3097.787631,6140.749190 3098.054011,6139.477618 3097.085834,6139.290182 3094.233606,6153.399047 3083.661529,6151.292983 3084.283032,6148.230164 3083.515171,6148.086845 3085.801409,6136.808594 3092.534155,6138.153840 3093.188947,6134.914109"/>
    <poly id="102746808" type="building.residential" color="255,230,230" fill="1" layer="-1.00" shape="2201.774519,5231.144793 2194.898764,5232.983733 2194.285560,5230.728645 2188.689279,5232.235227 2189.313629,5234.523477 2182.371115,5236.373509 2181.389972,5232.736622 2180.166129,5233.057895 2178.683284,5227.597042 2182.265795,5226.633271 2182.522224,5227.572891 2184.758513,5226.974681 2184.033817,5224.310582 2179.705877,5225.473756 2178.992320,5222.831762 2181.072849,5222.277859 2180.582293,5220.487056 2179.247193,5220.841555 2178.544787,5218.243780 2175.941347,5218.941687 2176.543412,5221.174670 2173.161406,5222.536349 2170.174930,5214.378642 2178.140783,5211.809430 2180.119821,5208.723768 2179.417409,5206.114936 2178.371581,5206.391890 2177.479645,5203.108746 2176.111169,5203.474319 2176.233817,5203.938604 2172.562293,5204.913478 2171.157493,5199.740038 2172.792991,5199.307987 2171.845313,5195.825865 2178.498551,5194.042323 2179.212107,5196.684317 2185.420314,5195.022627 2184.706763,5192.391689 2191.437886,5190.597051 2192.385564,5194.079172 2194.065560,5193.624986 2195.492679,5198.920029 2191.609764,5199.950295 2191.364480,5199.043837 2189.984877,5199.409416 2190.843377,5202.593074 2191.955958,5202.293973 2192.669497,5204.902799 2193.058903,5204.803088 2193.571762,5206.682328 2196.075073,5206.017641 2195.517606,5203.950474 2199.867801,5202.787289 2202.209128,5211.398632 2193.675625,5213.680690 2192.675399,5216.014028 2189.949574,5216.745168 2190.730025,5219.630357 2197.650284,5217.780338 2198.430734,5220.665527 2194.369810,5221.751167 2195.105663,5224.470540 2197.286321,5223.883416 2196.940714,5222.645333 2200.645608,5221.648330 2202.173056,5227.286054 2200.826829,5227.640560 2201.774519,5231.144793"/>
    <poly id="102746810" type="building.residential" color="255,230,230" fill="1" layer="-1.00" shape="2204.803071,5318.496260 2211.468365,5318.470605 2211.455611,5315.408114 2217.887236,5315.393640 2217.889016,5318.743592 2224.865884,5318.728829 2224.852565,5314.604966 2226.632947,5314.604020 2226.619059,5309.407731 2222.813498,5309.420809 2222.813915,5310.205781 2221.167067,5310.217712 2221.165116,5306.547137 2219.918849,5306.547799 2219.906135,5303.562699 2222.597765,5301.305855 2231.733200,5301.013547 2230.738433,5292.677888 2227.288866,5292.535994 2227.301180,5294.769289 2224.319045,5294.781929 2224.306625,5292.349627 2223.082612,5292.350277 2223.070463,5290.426548 2224.928731,5290.414505 2224.916048,5287.484685 2220.598626,5287.498034 2220.586059,5284.789333 2223.034085,5284.788032 2223.034825,5286.181082 2226.884897,5286.167981 2226.870745,5280.474173 2225.390802,5280.474960 2225.377613,5276.594328 2218.400744,5276.609090 2218.413193,5279.096672 2212.493427,5279.110873 2212.492123,5276.656453 2205.515254,5276.671215 2205.528355,5280.386008 2204.282087,5280.386670 2204.296210,5286.025198 2208.112900,5286.012115 2208.112342,5284.961799 2210.148654,5284.960718 2210.150188,5287.846320 2206.177715,5287.859487 2206.179201,5290.656642 2213.033668,5290.641944 2213.046969,5294.732639 2211.923102,5294.733236 2210.319871,5293.064639 2208.417980,5294.746154 2199.916665,5294.772783 2199.944066,5304.457783 2204.305998,5304.444409 2204.293819,5302.465400 2206.942138,5302.463993 2206.954393,5304.586729 2207.577527,5304.586398 2207.589976,5307.073980 2208.457913,5307.073519 2208.470421,5309.671661 2202.973502,5309.696694 2202.987202,5314.539194 2204.800967,5314.538230 2204.803071,5318.496260"/>
    <poly id="102747584" type="building.residential" color="255,230,230" fill="1" layer="-1.00" shape="2262.370538,5224.025751 2255.248942,5223.907916 2255.292213,5221.575088 2249.494789,5221.478662 2249.451541,5223.855715 2242.274309,5223.737910 2242.339071,5219.967797 2241.070537,5219.946358 2241.167678,5214.285660 2244.873135,5214.350028 2244.862518,5215.311902 2247.177039,5215.354897 2247.220087,5212.601942 2242.735707,5212.526931 2242.778767,5209.796089 2244.937498,5209.828111 2244.969894,5207.970694 2243.578959,5207.949320 2243.633163,5205.251640 2240.929183,5205.208851 2240.885906,5207.530624 2237.258576,5207.908452 2236.653094,5199.240908 2245.031881,5198.971117 2247.790183,5196.537344 2247.833261,5193.839670 2246.753892,5193.818131 2246.807727,5190.423925 2245.383409,5190.402570 2245.372528,5190.866925 2241.578058,5190.813660 2241.664230,5185.451478 2243.355612,5185.483748 2243.420463,5181.879474 2250.297251,5181.986383 2250.254191,5184.717226 2256.685883,5184.824371 2256.728949,5182.104585 2263.694757,5182.211447 2263.641033,5185.815715 2265.376924,5185.847962 2265.290815,5191.331758 2261.273785,5191.256499 2261.284413,5190.316737 2259.848968,5190.295387 2259.795080,5193.590089 2260.952335,5193.600531 2260.909263,5196.309261 2261.309855,5196.320105 2261.277506,5198.265969 2263.881339,5198.308810 2263.913588,5196.174995 2268.420224,5196.249995 2268.269176,5205.172226 2259.433944,5205.022133 2257.821517,5206.990948 2255.006263,5206.948218 2254.952211,5209.933353 2262.118316,5210.051165 2262.064264,5213.036300 2257.869196,5212.961135 2257.826183,5215.780425 2260.073934,5215.812400 2260.095508,5214.529898 2263.923366,5214.594202 2263.826312,5220.420738 2262.435377,5220.399365 2262.370538,5224.025751"/>
    <poly id="102747587" type="building.residential" color="255,230,230" fill="1" layer="-1.00" shape="2214.291146,5227.954031 2221.311915,5226.789428 2220.921229,5224.478941 2226.640210,5223.536149 2227.030908,5225.868747 2234.118435,5224.693052 2233.493328,5220.978585 2234.739485,5220.767860 2233.801819,5215.185103 2230.141229,5215.795124 2230.297518,5216.745853 2228.016602,5217.122966 2227.558940,5214.414501 2231.987250,5213.671401 2231.529594,5210.973992 2229.404450,5211.328911 2229.091914,5209.504845 2230.460460,5209.271944 2230.013956,5206.618752 2232.673168,5206.175103 2233.063842,5208.463477 2237.258576,5207.908452 2236.653094,5199.240908 2227.696264,5200.605546 2224.601792,5198.617118 2224.155282,5195.952871 2225.223418,5195.775408 2224.654136,5192.414701 2226.056064,5192.181782 2226.134209,5192.657146 2229.883812,5192.036023 2228.990815,5186.751752 2227.321852,5187.029037 2226.730210,5183.469335 2219.943092,5184.589589 2220.389620,5187.287004 2214.047563,5188.340687 2213.601040,5185.654328 2206.724915,5186.796742 2207.327678,5190.345382 2205.603085,5190.633752 2206.518402,5196.039627 2210.479408,5195.385222 2210.323126,5194.445550 2211.736182,5194.212624 2212.283150,5197.462784 2211.148255,5197.651337 2211.594766,5200.315585 2211.194215,5200.382133 2211.517937,5202.316753 2208.947732,5202.738244 2208.601661,5200.626741 2204.151091,5201.358797 2205.635713,5210.169602 2214.347694,5208.716646 2216.240261,5210.429313 2219.021863,5209.963486 2219.513036,5212.915164 2212.447763,5214.090847 2212.938930,5217.031469 2217.089084,5216.343796 2217.557908,5219.118591 2215.332623,5219.484619 2215.120528,5218.213298 2211.337548,5218.845496 2212.308685,5224.594075 2213.688364,5224.372223 2214.291146,5227.954031"/>
    <poly id="102927419" type="building.residential" color="255,230,230" fill="1" layer="-1.00" shape="2376.416346,5352.015183 2377.551298,5351.937189 2378.285248,5351.074435 2378.195630,5349.946776 2377.338434,5349.217539 2378.116083,5346.829042 2379.740963,5347.358865 2379.229931,5348.918024 2384.393916,5350.573674 2388.015562,5339.493695 2382.105906,5337.584154 2381.494892,5339.452933 2380.459870,5339.121804 2380.004398,5340.537207 2378.546465,5340.073631 2379.568523,5336.944256 2377.275894,5336.215781 2377.931377,5334.269587 2382.757826,5328.927003 2389.682339,5335.103600 2394.898012,5329.318573 2389.754726,5324.733086 2391.289401,5323.029656 2388.940408,5320.930273 2393.077301,5316.229301 2395.435596,5314.890280 2396.582772,5316.879741 2399.463890,5315.230877 2400.243535,5316.601400 2398.719547,5317.475628 2399.142775,5318.205096 2397.529791,5319.123596 2400.637189,5324.506191 2410.481947,5318.895603 2408.744473,5315.878252 2410.312965,5314.992944 2407.350359,5309.864559 2404.357997,5311.568762 2403.589503,5310.242456 2411.387446,5305.804885 2412.133667,5307.098034 2409.007817,5308.879700 2412.070669,5314.195984 2413.939506,5313.133621 2415.777214,5316.316758 2425.332754,5310.883219 2422.036016,5305.169046 2420.634388,5305.965817 2420.333667,5305.435292 2418.932046,5306.243119 2418.130135,5304.850496 2421.089127,5303.168422 2416.867965,5295.851628 2413.920101,5297.533695 2413.285259,5296.439494 2414.875988,5295.521006 2414.486160,5294.824689 2416.076895,5293.917257 2412.813568,5288.258346 2402.668457,5294.034931 2405.218968,5298.444900 2406.464866,5297.747714 2407.233365,5299.085075 2405.030806,5300.335566 2404.106858,5299.628476 2402.938559,5299.772823 2402.215772,5300.701906 2402.372171,5301.862697 2400.280851,5303.046793 2399.467813,5301.654175 2400.858319,5300.868465 2398.062776,5296.027445 2387.761934,5301.903618 2391.225725,5307.883046 2392.827587,5306.975608 2393.217397,5307.638758 2394.730264,5306.775592 2395.387390,5307.925061 2392.428398,5309.607135 2393.642403,5311.718176 2391.239616,5313.090388 2389.146776,5311.410996 2387.067305,5313.954967 2386.221260,5313.269947 2387.288802,5311.975835 2386.498424,5311.346066 2387.554839,5310.051959 2382.478586,5305.975010 2375.406183,5314.668737 2379.280167,5317.784457 2380.103060,5316.777929 2381.494581,5317.904897 2378.180780,5321.975243 2376.722471,5320.804087 2377.634318,5319.675897 2373.626746,5316.449688 2366.565459,5325.121298 2371.697378,5329.253497 2372.464668,5328.313334 2373.143726,5328.854715 2374.211263,5327.549547 2375.101835,5328.267711 2373.066856,5330.778490 2374.825734,5332.192718 2374.014808,5334.780239 2371.788950,5334.062785 2370.744684,5337.280619 2369.398042,5336.850152 2369.920166,5335.224651 2369.096599,5334.959746 2369.563186,5333.522225 2363.230619,5331.480237 2359.842256,5341.819345 2363.570569,5343.022464 2362.981786,5344.847007 2368.757884,5346.701339 2369.846595,5343.361866 2371.048563,5343.759242 2368.115695,5352.727171 2366.769047,5352.285648 2367.924434,5348.780300 2362.203979,5346.936994 2361.681843,5348.540383 2357.942402,5347.337271 2354.509613,5357.831186 2360.819919,5359.862129 2361.264292,5358.502012 2361.987695,5358.733803 2362.520946,5357.108296 2363.656133,5357.472539 2362.589642,5360.745665 2364.492753,5361.363788 2364.571144,5362.303501 2365.361764,5363.386564 2366.652763,5363.806005 2367.932189,5363.385199 2368.655111,5362.710403 2370.825320,5363.405775 2371.780725,5360.486498 2373.628187,5361.082538 2372.595026,5364.256143 2378.794040,5366.253977 2382.326800,5355.428332 2377.752660,5353.949264 2377.363841,5355.154568 2375.583149,5354.569548 2376.416346,5352.015183"/>
    <poly id="102968151" type="building.residential" color="255,230,230" fill="1" layer="-1.00" shape="2199.986533,5363.419152 2200.728759,5357.194257 2202.720685,5357.425373 2203.208133,5353.367580 2213.957872,5354.644356 2214.268105,5352.134490 2211.285777,5351.782285 2211.640314,5348.885437 2213.743525,5349.138606 2214.098045,5346.208590 2208.934613,5345.603257 2209.399948,5341.810819 2211.492026,5342.052938 2211.979510,5338.061480 2218.600724,5338.842933 2218.113304,5342.956006 2222.408747,5343.462297 2222.907287,5339.338163 2229.328196,5340.097611 2228.796379,5344.420770 2230.710413,5344.651928 2230.245137,5348.554926 2225.293132,5347.960536 2224.960750,5350.669421 2226.897039,5350.900567 2226.564651,5353.598396 2223.226217,5353.191100 2222.882761,5355.999494 2233.265272,5357.232242 2232.755668,5361.477998 2234.369239,5361.665092 2233.660219,5367.558290 2230.121486,5367.140045 2230.298725,5365.636341 2228.162132,5365.383190 2227.896244,5367.583466 2225.169857,5367.253236 2225.369269,5365.594738 2220.728849,5365.033351 2220.883944,5363.739722 2214.151446,5362.936216 2214.018528,5364.086106 2210.023537,5363.601768 2209.824138,5365.282379 2206.875192,5364.930156 2207.174309,5362.442408 2204.370031,5362.112220 2204.148441,5363.914458 2199.986533,5363.419152"/>
    <poly id="102968154" type="building.residential" color="255,230,230" fill="1" layer="-1.00" shape="2263.485527,5353.965733 2268.768904,5349.949616 2271.775377,5353.861825 2272.609597,5353.231192 2275.927837,5357.519138 2273.280582,5359.521671 2272.601353,5358.659668 2270.410146,5360.330280 2271.924516,5362.297435 2269.533091,5364.111881 2268.219161,5362.421019 2264.982396,5364.877160 2264.381106,5364.103563 2262.223262,5365.740990 2258.994088,5361.541445 2258.684066,5364.449325 2253.932367,5363.876941 2254.530666,5359.023061 2252.427455,5358.769891 2251.939965,5362.750292 2247.755803,5362.254998 2247.002420,5368.424619 2242.829385,5367.929319 2242.629991,5369.620985 2239.547511,5369.257777 2239.824503,5367.013272 2237.265039,5366.705066 2237.109932,5367.976583 2233.660219,5367.558290 2234.369239,5361.665092 2235.448666,5361.797189 2235.958311,5357.628825 2244.271004,5358.630499 2244.603374,5355.899502 2242.132936,5355.602305 2242.465294,5352.849196 2244.379328,5353.080354 2244.700595,5350.393587 2239.692953,5349.799227 2240.147190,5346.062075 2242.250402,5346.315244 2242.748948,5342.202165 2249.359040,5342.994681 2248.860528,5347.174095 2253.178230,5347.691431 2253.687858,5343.489899 2260.264567,5344.282433 2259.754957,5348.517132 2261.813652,5348.759269 2261.370507,5352.430080 2256.440758,5351.835678 2256.130548,5354.389767 2258.033455,5354.620931 2257.734349,5357.130791 2260.082380,5357.416998 2260.348280,5355.238834 2263.241583,5355.580031 2263.485527,5353.965733"/>
    <poly id="102971658" type="building.residential" color="255,230,230" fill="1" layer="-1.00" shape="2294.190845,5216.413423 2298.074451,5216.687760 2298.628292,5211.922353 2301.187750,5212.219505 2301.110245,5212.949239 2303.525042,5213.235412 2304.034578,5208.856986 2310.444348,5209.594333 2309.968018,5213.641063 2311.614972,5213.828140 2311.116492,5218.073888 2306.509471,5217.545648 2306.188238,5220.298749 2308.035496,5220.507832 2307.415178,5225.815016 2309.451614,5226.046110 2309.097145,5229.075628 2306.648967,5228.789472 2306.338814,5231.454120 2307.852233,5231.630212 2307.420225,5235.323128 2301.800547,5234.673810 2301.977787,5233.170107 2296.669693,5232.553792 2297.467251,5225.742904 2296.353778,5224.361502 2297.766317,5223.155654 2298.264784,5218.887793 2295.749789,5218.502170 2294.225935,5219.630685 2294.938592,5220.581119 2292.435910,5222.428790 2290.398148,5219.699053 2288.384870,5221.170562 2292.092932,5226.143771 2288.433453,5228.843365 2286.952459,5226.865136 2283.404207,5229.476224 2279.306410,5223.983592 2282.287383,5221.781876 2278.779760,5217.084960 2275.654178,5219.375200 2271.556381,5213.882569 2274.882169,5211.426383 2273.111651,5209.050294 2276.782259,5206.350694 2280.545993,5211.390209 2282.659370,5209.830198 2280.643875,5207.122561 2283.113193,5205.308074 2286.130864,5209.352950 2288.678016,5207.427863 2289.165403,5203.248456 2282.944862,5202.632624 2283.210494,5199.945888 2285.135632,5200.132817 2285.434482,5197.136496 2281.395027,5196.740626 2281.815650,5192.561254 2283.696279,5192.748207 2284.083649,5188.812084 2290.326445,5189.427904 2289.861588,5194.126929 2294.579849,5194.588775 2295.000413,5190.298844 2301.398998,5190.925637 2300.956219,5195.292972 2302.658804,5195.468963 2302.260377,5199.537764 2298.120770,5199.130890 2297.832972,5201.983478 2299.346374,5202.126402 2299.091787,5204.658349 2297.789812,5204.526369 2297.546306,5206.969862 2290.902901,5206.310031 2290.703888,5208.720334 2289.780666,5209.384181 2291.306240,5211.495057 2295.210469,5208.695830 2297.882991,5212.364986 2293.511593,5215.507196 2294.190845,5216.413423"/>
    <poly id="102971661" type="building.residential" color="255,230,230" fill="1" layer="-1.00" shape="2285.880068,5281.902217 2285.190645,5282.798115 2288.219514,5286.975655 2284.749266,5289.796765 2281.798541,5286.094589 2280.085845,5287.831283 2280.497858,5288.394917 2280.265598,5291.059524 2286.018851,5291.797218 2286.164863,5294.351064 2287.511301,5294.394573 2287.401577,5297.313402 2285.454225,5297.203876 2285.311049,5299.990051 2289.339322,5300.286423 2289.041043,5304.355170 2287.182652,5304.135038 2286.806605,5308.436002 2280.051828,5307.588281 2280.616906,5303.032930 2275.909921,5302.847479 2275.767467,5306.993536 2269.090564,5306.112606 2269.422178,5301.955393 2267.964373,5301.735049 2268.407166,5297.400881 2272.591399,5298.028848 2272.812490,5295.286855 2271.098832,5295.210374 2271.397780,5292.402004 2277.885517,5293.283034 2278.105763,5288.948985 2276.123949,5286.805184 2272.142093,5290.101971 2269.937473,5287.471826 2272.506602,5285.027097 2271.393194,5283.767310 2266.799531,5287.440325 2263.626294,5283.804603 2265.561414,5281.835616 2263.289794,5278.763269 2268.584189,5274.537084 2270.822368,5277.498890 2275.482877,5273.980623 2273.467399,5271.306154 2278.617237,5267.267998 2281.077864,5270.041734 2283.469489,5268.603191 2285.963844,5272.029211 2281.281368,5276.089230 2282.906947,5277.934711 2285.431702,5275.744292 2287.602852,5278.208616 2286.668586,5279.027252 2287.759733,5280.275995 2290.430424,5280.495696 2290.828785,5276.305280 2290.049075,5274.813141 2291.773181,5273.607127 2292.392868,5267.116956 2297.456083,5267.589674 2297.544574,5266.594591 2303.431256,5267.144263 2303.077163,5270.881362 2301.274438,5270.716480 2301.053135,5273.060458 2303.423386,5273.280319 2303.157843,5276.132894 2301.533168,5275.990029 2301.289727,5278.555139 2300.510769,5278.478161 2300.200928,5281.728774 2298.509483,5281.574889 2298.277129,5284.062600 2302.461232,5284.447337 2302.085055,5288.505069 2300.382483,5288.351190 2299.984128,5292.552662 2293.707970,5291.970030 2294.117329,5287.536377 2289.087497,5287.063642 2289.530068,5282.309349 2285.880068,5281.902217"/>
    <poly id="102971664" type="building.residential" color="255,230,230" fill="1" layer="-1.00" shape="2280.326399,5258.875625 2284.332518,5259.359960 2284.941807,5254.240732 2287.401118,5254.537937 2287.135211,5256.705044 2290.195431,5257.057210 2290.560997,5253.972406 2293.966196,5254.379668 2292.758652,5264.441222 2297.688396,5265.024570 2297.544574,5266.594591 2303.431256,5267.144263 2303.852347,5263.849367 2302.127491,5263.640220 2302.470937,5260.809715 2304.941376,5261.106914 2305.306966,5258.066334 2303.615497,5257.868225 2304.025426,5254.507000 2301.365810,5254.187789 2302.207759,5247.155759 2304.700446,5247.441891 2305.099237,5244.058559 2307.113423,5244.300721 2307.456888,5241.503383 2304.941939,5241.206208 2305.252127,5238.607895 2306.910214,5238.806022 2307.420225,5235.323128 2301.800547,5234.673810 2301.623049,5235.691052 2296.626534,5235.096682 2295.363569,5245.567336 2291.379711,5245.094045 2291.811778,5241.511688 2289.207804,5241.203504 2288.975156,5243.138419 2286.215393,5242.819261 2286.802533,5237.899052 2283.030107,5237.447761 2282.830706,5239.128371 2278.524136,5238.622084 2277.726474,5245.233965 2282.122069,5245.751261 2281.568118,5250.306606 2277.261548,5249.800318 2276.463892,5256.423255 2280.570157,5256.907537 2280.326399,5258.875625"/>
    <poly id="102971667" type="building.residential" color="255,230,230" fill="1" layer="-1.00" shape="2284.220726,5342.191187 2287.338537,5346.224951 2285.169578,5347.884496 2285.804274,5348.702299 2282.712112,5351.058859 2284.048320,5352.793933 2281.656901,5354.619435 2280.131404,5352.652287 2278.162656,5354.156942 2278.964380,5355.195775 2275.927837,5357.519138 2272.609597,5353.231192 2273.710761,5352.390355 2270.971545,5348.853907 2276.388385,5344.716104 2277.556819,5344.826043 2277.900123,5341.730195 2279.936547,5341.939176 2280.423738,5337.394922 2275.772226,5336.899875 2275.218605,5342.074354 2271.034467,5341.623283 2271.266991,5339.456193 2267.171878,5339.016131 2267.880541,5332.448520 2272.409641,5332.921520 2272.885763,5328.487831 2268.456810,5328.014778 2269.143325,5321.646187 2273.750322,5322.130201 2273.960703,5320.173187 2277.788742,5320.580223 2277.257305,5325.622018 2280.072692,5325.919033 2280.294165,5323.895677 2282.853611,5324.170716 2282.565720,5326.846409 2285.225313,5327.121395 2286.088991,5319.105373 2290.473428,5319.567394 2290.639541,5318.063697 2296.515135,5318.690766 2296.072213,5322.781702 2294.425266,5322.605681 2294.137369,5325.270318 2296.563274,5325.523316 2296.275401,5328.232176 2293.949648,5327.990181 2293.473478,5332.335421 2287.464349,5331.697368 2287.087891,5335.224416 2283.259853,5334.817379 2283.016243,5337.061866 2287.945957,5337.589933 2287.414467,5342.532224 2284.220726,5342.191187"/>
    <poly id="102972098" type="amenity.parking" color="184,184,179" fill="1" layer="-1.00" shape="2237.558322,5164.679527 2243.627147,5131.021994 2258.450241,5133.656500 2325.632676,5145.605509 2319.574973,5179.263025 2237.558322,5164.679527"/>
    <poly id="102972098#1" type="building.garage" color="255,230,230" fill="1" layer="-1.00" shape="2237.558322,5164.679527 2243.627147,5131.021994 2258.450241,5133.656500 2325.632676,5145.605509 2319.574973,5179.263025 2237.558322,5164.679527"/>
    <poly id="102973630" type="building.residential" color="255,230,230" fill="1" layer="-1.00" shape="2230.710199,5134.721536 2230.791418,5140.990216 2228.788498,5141.013391 2228.846306,5145.104062 2218.019420,5145.242480 2218.043018,5147.774281 2221.047392,5147.728462 2221.082323,5150.647215 2218.968130,5150.670449 2219.003079,5153.622369 2224.188410,5153.553281 2224.246078,5157.378609 2222.131884,5157.401844 2222.178530,5161.426185 2215.502139,5161.518177 2215.455435,5157.383276 2211.126907,5157.440853 2211.173617,5161.586810 2204.719768,5161.667628 2204.661825,5157.322670 2202.736797,5157.345804 2202.679070,5153.409915 2207.664115,5153.351989 2207.629283,5150.621188 2205.693128,5150.644327 2205.658308,5147.935638 2209.018758,5147.889630 2208.983879,5145.070381 2198.535318,5145.197543 2198.477415,5140.929976 2196.852827,5140.952951 2196.771784,5135.015947 2200.343655,5134.969828 2200.355586,5136.484487 2202.514290,5136.461229 2202.479734,5134.250057 2205.228184,5134.215430 2205.251325,5135.884867 2209.924802,5135.827106 2209.947755,5137.142752 2216.724293,5137.050708 2216.712556,5135.900895 2220.729517,5135.843483 2220.706370,5134.162991 2223.677367,5134.128247 2223.712076,5136.626873 2226.538417,5136.592205 2226.515194,5134.767986 2230.710199,5134.721536"/>
    <poly id="106087285" type="amenity.parking" color="184,184,179" fill="1" layer="-1.00" shape="2713.899369,5668.212751 2734.452522,5544.110072 2763.230377,5548.815694 2742.677214,5672.918359 2713.899369,5668.212751"/>
    <poly id="106087285#1" type="building.yes" color="255,230,230" fill="1" layer="-1.00" shape="2713.899369,5668.212751 2734.452522,5544.110072 2763.230377,5548.815694 2742.677214,5672.918359 2713.899369,5668.212751"/>
    <poly id="106928218" type="building.yes" color="255,230,230" fill="1" layer="-1.00" shape="3886.470174,5974.338378 3886.466295,5966.986216 3912.771218,5966.961283 3912.755915,5959.045278 3895.197047,5959.065596 3895.191920,5949.347475 3917.268471,5949.324775 3917.303900,5974.299999 3886.470174,5974.338378"/>
    <poly id="106928219" type="building.yes" color="255,230,230" fill="1" layer="-1.00" shape="3924.596005,5981.360863 3956.108683,5981.686974 3956.182656,5974.257381 3930.478465,5974.005597 3930.562661,5964.862336 3947.242570,5965.030434 3947.327478,5957.235991 3924.850219,5957.015671 3924.596005,5981.360863"/>
    <poly id="107703180" type="amenity.parking" color="184,184,179" fill="1" layer="-1.00" shape="2124.353322,6176.459053 2176.373155,6112.925838 2199.305421,6131.454417 2185.427531,6148.399554 2168.658417,6168.873088 2147.274467,6194.987631 2124.353322,6176.459053"/>
    <poly id="107703180#1" type="building.garage" color="255,230,230" fill="1" layer="-1.00" shape="2124.353322,6176.459053 2176.373155,6112.925838 2199.305421,6131.454417 2185.427531,6148.399554 2168.658417,6168.873088 2147.274467,6194.987631 2124.353322,6176.459053"/>
    <poly id="107936177" type="building.yes" color="255,230,230" fill="1" layer="-1.00" shape="2614.583898,5535.362086 2616.625613,5524.581465 2626.351898,5526.400533 2624.310183,5537.181153 2614.583898,5535.362086"/>
    <poly id="107936178" type="building.yes" color="255,230,230" fill="1" layer="-1.00" shape="2585.892019,5629.739737 2592.060842,5595.861070 2598.626615,5597.040569 2599.691753,5591.224580 2613.802600,5593.759953 2606.568637,5633.454605 2585.892019,5629.739737"/>
    <poly id="107936183" type="amenity.shelter" color="237,199,199" fill="1" layer="-1.00" shape="3171.843188,5263.854287 3183.529625,5247.905494 3193.091673,5254.821450 3181.405237,5270.770243 3171.843188,5263.854287"/>
    <poly id="107936183#1" type="building.public" color="255,230,230" fill="1" layer="-1.00" shape="3171.843188,5263.854287 3183.529625,5247.905494 3193.091673,5254.821450 3181.405237,5270.770243 3171.843188,5263.854287"/>