<?xml version="1.0" encoding="UTF-8"?>

<!-- generated on 2022-01-22 15:32:38 by Eclipse SUMO duarouter Version v1_10_0+0626-dea525ad83
<configuration xmlns:xsi="http://www.w3.org/2001/XMLSchema-instance" xsi:noNamespaceSchemaLocation="http://sumo.dlr.de/xsd/duarouterConfiguration.xsd">

    <input>
        <net-file value="/Users/corinnajiang/sumo/tools/2022-01-22-15-32-27/osm.net.xml"/>
        <route-files value="/Users/corinnajiang/sumo/tools/2022-01-22-15-32-27/osm.passenger.trips.xml"/>
    </input>

    <output>
        <output-file value="/Users/corinnajiang/sumo/tools/2022-01-22-15-32-27/osm.passenger.trips.xml.tmp"/>
        <write-trips value="true"/>
    </output>

    <time>
        <begin value="0"/>
        <end value="3600"/>
    </time>

    <report>
        <no-warnings value="true"/>
        <ignore-errors value="true"/>
        <no-step-log value="true"/>
    </report>

</configuration>
-->

<routes xmlns:xsi="http://www.w3.org/2001/XMLSchema-instance" xsi:noNamespaceSchemaLocation="http://sumo.dlr.de/xsd/routes_file.xsd">
    <vType id="veh_passenger" accel="0.8" decel="4.5" sigma="0.5" length="5" maxSpeed="50"/>
   <!--  <vType id="veh_passenger" vClass="private"/>-->
    <trip id="vehicle_0" type="veh_passenger" depart="0.00" departLane="best" from="540472413" to="482059928"/>
    <trip id="veh0" type="veh_passenger" depart="0.00" departLane="best" from="644170934" to="-644154172"/>
    <trip id="veh1" type="veh_passenger" depart="4.58" departLane="best" from="251582093" to="251582017#1"/>
    <trip id="veh2" type="veh_passenger" depart="9.16" departLane="best" departSpeed="max" from="655012848#0" to="644381572"/>
    <trip id="veh3" type="veh_passenger" depart="13.74" departLane="best" from="723687439#1" to="-670467808"/>
    <trip id="veh4" type="veh_passenger" depart="18.32" departLane="best" departSpeed="max" from="482052324#0" to="-644170937#1"/>
    <trip id="veh5" type="veh_passenger" depart="22.90" departLane="best" from="251582020#1" to="537120339#0"/>
    <trip id="veh7" type="veh_passenger" depart="32.05" departLane="best" from="644822502" to="630410739"/>
    <trip id="veh8" type="veh_passenger" depart="36.63" departLane="best" from="251582022#0" to="635582279"/>
    <trip id="veh9" type="veh_passenger" depart="41.21" departLane="best" from="655786194#0" to="-22887333#0"/>
    <trip id="veh10" type="veh_passenger" depart="45.79" departLane="best" departSpeed="max" from="655783819" to="646467569"/>
    <trip id="veh12" type="veh_passenger" depart="54.95" departLane="best" from="795207462" to="265150735"/>
    <trip id="veh13" type="veh_passenger" depart="59.53" departLane="best" from="709141518#0" to="635669709#1"/>
    <trip id="veh14" type="veh_passenger" depart="64.11" departLane="best" from="655784708" to="649161101"/>
    <trip id="veh15" type="veh_passenger" depart="68.69" departLane="best" from="634906816#0" to="822485836#1"/>
    <trip id="veh16" type="veh_passenger" depart="73.26" departLane="best" from="670467806" to="636835789"/>
    <trip id="veh17" type="veh_passenger" depart="77.84" departLane="best" from="709567665" to="635581633"/>
    <trip id="veh18" type="veh_passenger" depart="82.42" departLane="best" from="649161101" to="-646276591"/>
    <trip id="veh19" type="veh_passenger" depart="87.00" departLane="best" from="251582042" to="251582095#0"/>
    <trip id="veh21" type="veh_passenger" depart="96.16" departLane="best" from="-723687439#0" to="251582084#0"/>
    <trip id="veh22" type="veh_passenger" depart="100.74" departLane="best" departSpeed="max" from="644154172" to="383249801#1"/>
    <trip id="veh23" type="veh_passenger" depart="105.32" departLane="best" from="391434121#1" to="251581992#1"/>
    <trip id="veh24" type="veh_passenger" depart="109.90" departLane="best" from="251582088#1" to="754760999#2"/>
    <trip id="veh26" type="veh_passenger" depart="119.05" departLane="best" from="22071728#0" to="649161101"/>
    <trip id="veh27" type="veh_passenger" depart="123.63" departLane="best" from="173896245" to="383249808#2"/>
    <trip id="veh28" type="veh_passenger" depart="128.21" departLane="best" from="87936189#3" to="639551506"/>
    <trip id="veh30" type="veh_passenger" depart="137.37" departLane="best" from="706845933" to="655531800"/>
    <trip id="veh31" type="veh_passenger" depart="141.95" departLane="best" from="251582047#1" to="-644239660"/>
    <trip id="veh32" type="veh_passenger" depart="146.53" departLane="best" departSpeed="max" from="251582196#0" to="251582076#0"/>
    <trip id="veh34" type="veh_passenger" depart="155.69" departLane="best" from="710421982" to="251582169#0"/>
    <trip id="veh35" type="veh_passenger" depart="160.27" departLane="best" from="74939755#3" to="482057941#1"/>
    <trip id="veh36" type="veh_passenger" depart="164.84" departLane="best" from="251582085#0" to="251582051"/>
    <trip id="veh37" type="veh_passenger" depart="169.42" departLane="best" from="635654402" to="251582069#1"/>
    <trip id="veh38" type="veh_passenger" depart="174.00" departLane="best" from="636835789" to="736937268#2"/>
    <trip id="veh39" type="veh_passenger" depart="178.58" departLane="best" from="481622706" to="251582010"/>
    <trip id="veh41" type="veh_passenger" depart="187.74" departLane="best" from="146652600#0" to="637957161"/>
    <trip id="veh43" type="veh_passenger" depart="196.90" departLane="best" from="-646650474" to="391434121#0"/>
    <trip id="veh44" type="veh_passenger" depart="201.48" departLane="best" from="903361559" to="540472415#1"/>
    <trip id="veh45" type="veh_passenger" depart="206.06" departLane="best" from="822485836#0" to="709881791"/>
    <trip id="veh48" type="veh_passenger" depart="219.79" departLane="best" from="251582088#1" to="639551506"/>
    <trip id="veh49" type="veh_passenger" depart="224.37" departLane="best" from="146658738#1" to="481651347#1"/>
    <trip id="veh50" type="veh_passenger" depart="228.95" departLane="best" from="482087300" to="795202558"/>
    <trip id="veh51" type="veh_passenger" depart="233.53" departLane="best" from="710421982" to="251582069#1"/>
    <trip id="veh52" type="veh_passenger" depart="238.11" departLane="best" from="540472395" to="22885862#1"/>
    <trip id="veh54" type="veh_passenger" depart="247.27" departLane="best" from="640010861#0" to="173896227#1"/>
    <trip id="veh55" type="veh_passenger" depart="251.85" departLane="best" from="655532865#1" to="540472416#1"/>
    <trip id="veh56" type="veh_passenger" depart="256.42" departLane="best" departSpeed="max" from="655627251" to="540472415#1"/>
    <trip id="veh57" type="veh_passenger" depart="261.00" departLane="best" from="-123098395" to="251582185#1"/>
    <trip id="veh58" type="veh_passenger" depart="265.58" departLane="best" departSpeed="max" from="-252391664" to="754730807#1"/>
    <trip id="veh60" type="veh_passenger" depart="274.74" departLane="best" from="251582181#0" to="-646651316"/>
    <trip id="veh61" type="veh_passenger" depart="279.32" departLane="best" from="710423345" to="795171837"/>
    <trip id="veh62" type="veh_passenger" depart="283.90" departLane="best" from="-664327390" to="503519459#0"/>
    <trip id="veh63" type="veh_passenger" depart="288.48" departLane="best" from="-646653480" to="655218266"/>
    <trip id="veh64" type="veh_passenger" depart="293.06" departLane="best" from="655532866#1" to="173767584"/>
    <trip id="veh65" type="veh_passenger" depart="297.64" departLane="best" departSpeed="max" from="533909548" to="632803196"/>
    <trip id="veh66" type="veh_passenger" depart="302.21" departLane="best" from="251582085#0" to="710426487#1"/>
    <trip id="veh67" type="veh_passenger" depart="306.79" departLane="best" departSpeed="max" from="482052324#0" to="251581993"/>
    <trip id="veh68" type="veh_passenger" depart="311.37" departLane="best" from="635250011" to="649161101"/>
    <trip id="veh71" type="veh_passenger" depart="325.11" departLane="best" from="482057941#1" to="540472395"/>
    <trip id="veh74" type="veh_passenger" depart="338.85" departLane="best" from="251582050" to="251582010"/>
    <trip id="veh75" type="veh_passenger" depart="343.43" departLane="best" from="-646655828" to="639302656"/>
    <trip id="veh76" type="veh_passenger" depart="348.00" departLane="best" from="251582047#1" to="74592172#1"/>
    <trip id="veh77" type="veh_passenger" depart="352.58" departLane="best" from="709567665" to="-646834813"/>
    <trip id="veh78" type="veh_passenger" depart="357.16" departLane="best" from="251582057#0" to="644239661#1"/>
    <trip id="veh79" type="veh_passenger" depart="361.74" departLane="best" from="251582019" to="173896149#2"/>
    <trip id="veh80" type="veh_passenger" depart="366.32" departLane="best" from="754521695#1" to="635338458"/>
    <trip id="veh81" type="veh_passenger" depart="370.90" departLane="best" departSpeed="max" from="533909548" to="655532867#1"/>
    <trip id="veh82" type="veh_passenger" depart="375.48" departLane="best" from="655784708" to="22886447"/>
    <trip id="veh83" type="veh_passenger" depart="380.06" departLane="best" from="-711816247#2" to="481632949"/>
    <trip id="veh84" type="veh_passenger" depart="384.64" departLane="best" departSpeed="max" from="482052324#0" to="482079524#1"/>
    <trip id="veh85" type="veh_passenger" depart="389.22" departLane="best" from="652568626#0" to="644379750"/>
    <trip id="veh86" type="veh_passenger" depart="393.79" departLane="best" from="826838090#1" to="-711816248"/>
    <trip id="veh87" type="veh_passenger" depart="398.37" departLane="best" from="481628924" to="265150877"/>
    <trip id="veh88" type="veh_passenger" depart="402.95" departLane="best" from="709567665" to="251582054#0"/>
    <trip id="veh89" type="veh_passenger" depart="407.53" departLane="best" departSpeed="max" from="482052324#0" to="251582085#0"/>
    <trip id="veh90" type="veh_passenger" depart="412.11" departLane="best" from="251582069#1" to="75321746"/>
    <trip id="veh91" type="veh_passenger" depart="416.69" departLane="best" from="482059928" to="709881791"/>
    <trip id="veh94" type="veh_passenger" depart="430.43" departLane="best" from="822485836#0" to="75326369#1"/>
    <trip id="veh95" type="veh_passenger" depart="435.01" departLane="best" from="709141518#0" to="175879018"/>
    <trip id="veh96" type="veh_passenger" depart="439.58" departLane="best" from="537120338#1" to="251581994#0"/>
    <trip id="veh97" type="veh_passenger" depart="444.16" departLane="best" from="481628924" to="-646651317"/>
    <trip id="veh99" type="veh_passenger" depart="453.32" departLane="best" from="251582085#0" to="655532867#0"/>
    <trip id="veh101" type="veh_passenger" depart="462.48" departLane="best" from="795207462" to="903361559"/>
    <trip id="veh103" type="veh_passenger" depart="471.64" departLane="best" departSpeed="max" from="173896234#0" to="251582101"/>
    <trip id="veh104" type="veh_passenger" depart="476.22" departLane="best" from="796737415" to="635581633"/>
    <trip id="veh105" type="veh_passenger" depart="480.80" departLane="best" from="635294932#0" to="652568626#0"/>
    <trip id="veh106" type="veh_passenger" depart="485.37" departLane="best" from="-646461500" to="635581633"/>
    <trip id="veh107" type="veh_passenger" depart="489.95" departLane="best" from="540472397#0" to="709592302"/>
    <trip id="veh110" type="veh_passenger" depart="503.69" departLane="best" from="639111906#1" to="644379750"/>
    <trip id="veh111" type="veh_passenger" depart="508.27" departLane="best" from="723687437" to="251582051"/>
    <trip id="veh112" type="veh_passenger" depart="512.85" departLane="best" from="639111906#1" to="636835789"/>
    <trip id="veh113" type="veh_passenger" depart="517.43" departLane="best" from="482051602" to="635581633"/>
    <trip id="veh114" type="veh_passenger" depart="522.01" departLane="best" from="540472416#1" to="754760999#2"/>
    <trip id="veh115" type="veh_passenger" depart="526.59" departLane="best" from="251581994#0" to="646785173"/>
    <trip id="veh116" type="veh_passenger" depart="531.16" departLane="best" from="251582057#0" to="465500904#0"/>
    <trip id="veh117" type="veh_passenger" depart="535.74" departLane="best" from="646467568" to="251582109#0"/>
    <trip id="veh118" type="veh_passenger" depart="540.32" departLane="best" departSpeed="max" from="251582196#0" to="655000280#1"/>
    <trip id="veh119" type="veh_passenger" depart="544.90" departLane="best" from="-646733277" to="482057941#1"/>
    <trip id="veh120" type="veh_passenger" depart="549.48" departLane="best" from="-646733281" to="251581994#0"/>
    <trip id="veh121" type="veh_passenger" depart="554.06" departLane="best" from="251582085#0" to="754760999#2"/>
    <trip id="veh122" type="veh_passenger" depart="558.64" departLane="best" from="711227438#0" to="710426487#1"/>
    <trip id="veh123" type="veh_passenger" depart="563.22" departLane="best" from="391434121#1" to="173896236"/>
    <trip id="veh124" type="veh_passenger" depart="567.80" departLane="best" departSpeed="max" from="676952845" to="646650652"/>
    <trip id="veh126" type="veh_passenger" depart="576.95" departLane="best" from="645324784" to="-251582008"/>
    <trip id="veh127" type="veh_passenger" depart="581.53" departLane="best" departSpeed="max" from="668815336" to="251582109#0"/>
    <trip id="veh128" type="veh_passenger" depart="586.11" departLane="best" from="646230289" to="75501993"/>
    <trip id="veh129" type="veh_passenger" depart="590.69" departLane="best" departSpeed="max" from="173896181" to="106857020#1"/>
    <trip id="veh130" type="veh_passenger" depart="595.27" departLane="best" from="-754521695#0" to="633588686"/>
    <trip id="veh131" type="veh_passenger" depart="599.85" departLane="best" from="251582091#1" to="635669709#1"/>
    <trip id="veh132" type="veh_passenger" depart="604.43" departLane="best" from="651935224" to="251581982"/>
    <trip id="veh133" type="veh_passenger" depart="609.01" departLane="best" from="644131144#1" to="251582072"/>
    <trip id="veh134" type="veh_passenger" depart="613.59" departLane="best" from="537120339#0" to="74592172#1"/>
    <trip id="veh135" type="veh_passenger" depart="618.17" departLane="best" from="709124946" to="-681127131"/>
    <trip id="veh136" type="veh_passenger" depart="622.74" departLane="best" departSpeed="max" from="482052324#0" to="251582083#1"/>
    <trip id="veh137" type="veh_passenger" depart="627.32" departLane="best" from="-173767859#1" to="655234886"/>
    <trip id="veh138" type="veh_passenger" depart="631.90" departLane="best" departSpeed="max" from="644154172" to="251582065#1"/>
    <trip id="veh139" type="veh_passenger" depart="636.48" departLane="best" departSpeed="max" from="655012848#0" to="633564691"/>
    <trip id="veh140" type="veh_passenger" depart="641.06" departLane="best" from="482054699#0" to="-252391645#1"/>
    <trip id="veh141" type="veh_passenger" depart="645.64" departLane="best" from="-646758052#0" to="711227438#0"/>
    <trip id="veh142" type="veh_passenger" depart="650.22" departLane="best" from="74939743" to="630410739"/>
    <trip id="veh143" type="veh_passenger" depart="654.80" departLane="best" from="676962147" to="635581633"/>
    <trip id="veh144" type="veh_passenger" depart="659.38" departLane="best" from="173896227#2" to="173767584"/>
    <trip id="veh145" type="veh_passenger" depart="663.96" departLane="best" from="251582185#0" to="736937268#2"/>
    <trip id="veh146" type="veh_passenger" depart="668.53" departLane="best" departSpeed="max" from="655783819" to="709881791"/>
    <trip id="veh147" type="veh_passenger" depart="673.11" departLane="best" from="736937268#3" to="251581993"/>
    <trip id="veh148" type="veh_passenger" depart="677.69" departLane="best" from="251582069#1" to="-723687439#0"/>
    <trip id="veh149" type="veh_passenger" depart="682.27" departLane="best" from="481632949" to="636837354"/>
    <trip id="veh150" type="veh_passenger" depart="686.85" departLane="best" departSpeed="max" from="173896234#0" to="754730807#1"/>
    <trip id="veh151" type="veh_passenger" depart="691.43" departLane="best" from="655796974" to="710817310"/>
    <trip id="veh153" type="veh_passenger" depart="700.59" departLane="best" from="383209584#0" to="754760999#1"/>
    <trip id="veh154" type="veh_passenger" depart="705.17" departLane="best" departSpeed="max" from="655783819" to="709881791"/>
    <trip id="veh155" type="veh_passenger" depart="709.75" departLane="best" from="655796974" to="251582075#2"/>
    <trip id="veh156" type="veh_passenger" depart="714.32" departLane="best" from="655682093" to="-754521603"/>
    <trip id="veh157" type="veh_passenger" depart="718.90" departLane="best" from="709592302" to="709881791"/>
    <trip id="veh159" type="veh_passenger" depart="728.06" departLane="best" from="482104103#0" to="251582120"/>
    <trip id="veh160" type="veh_passenger" depart="732.64" departLane="best" departSpeed="max" from="655783819" to="251582019"/>
    <trip id="veh161" type="veh_passenger" depart="737.22" departLane="best" from="-537120337#0" to="22887333#0"/>
    <trip id="veh162" type="veh_passenger" depart="741.80" departLane="best" from="265150735" to="709881791"/>
    <trip id="veh163" type="veh_passenger" depart="746.38" departLane="best" from="796737414" to="251582085#1"/>
    <trip id="veh164" type="veh_passenger" depart="750.96" departLane="best" from="644170940#0" to="481621502"/>
    <trip id="veh165" type="veh_passenger" depart="755.54" departLane="best" from="826324588" to="540472416#0"/>
    <trip id="veh167" type="veh_passenger" depart="764.69" departLane="best" from="822485836#0" to="22885862#0"/>
    <trip id="veh168" type="veh_passenger" depart="769.27" departLane="best" from="796737412" to="251582074#1"/>
    <trip id="veh169" type="veh_passenger" depart="773.85" departLane="best" from="-766857571#0" to="481651347#1"/>
    <trip id="veh170" type="veh_passenger" depart="778.43" departLane="best" from="652568626#0" to="251582168#1"/>
    <trip id="veh171" type="veh_passenger" depart="783.01" departLane="best" from="481621503#1" to="635581633"/>
    <trip id="veh172" type="veh_passenger" depart="787.59" departLane="best" from="251582076#0" to="646670735"/>
    <trip id="veh173" type="veh_passenger" depart="792.17" departLane="best" from="-172344206#0" to="75326369#1"/>
    <trip id="veh174" type="veh_passenger" depart="796.75" departLane="best" from="634940237" to="646831287"/>
    <trip id="veh175" type="veh_passenger" depart="801.33" departLane="best" departSpeed="max" from="655012848#0" to="644239662#0"/>
    <trip id="veh177" type="veh_passenger" depart="810.48" departLane="best" from="646230289" to="252391664"/>
    <trip id="veh178" type="veh_passenger" depart="815.06" departLane="best" departSpeed="max" from="251582196#0" to="709567667#0"/>
    <trip id="veh179" type="veh_passenger" depart="819.64" departLane="best" departSpeed="max" from="652550419" to="251582109#0"/>
    <trip id="veh180" type="veh_passenger" depart="824.22" departLane="best" from="251582185#0" to="481621502"/>
    <trip id="veh181" type="veh_passenger" depart="828.80" departLane="best" from="481628924" to="251582099"/>
    <trip id="veh183" type="veh_passenger" depart="837.96" departLane="best" from="75501993" to="644807219"/>
    <trip id="veh184" type="veh_passenger" depart="842.54" departLane="best" from="74592172#1" to="636810404#0"/>
    <trip id="veh185" type="veh_passenger" depart="847.12" departLane="best" from="251582169#0" to="632803196"/>
    <trip id="veh186" type="veh_passenger" depart="851.69" departLane="best" from="-123098395" to="251582092"/>
    <trip id="veh187" type="veh_passenger" depart="856.27" departLane="best" from="482054699#1" to="635581633"/>
    <trip id="veh188" type="veh_passenger" depart="860.85" departLane="best" from="645324785" to="482079524#0"/>
    <trip id="veh189" type="veh_passenger" depart="865.43" departLane="best" from="482057944#0" to="251581994#0"/>
    <trip id="veh190" type="veh_passenger" depart="870.01" departLane="best" departSpeed="max" from="533909548" to="736937275"/>
    <trip id="veh191" type="veh_passenger" depart="874.59" departLane="best" departSpeed="max" from="655783819" to="22071728#0"/>
    <trip id="veh192" type="veh_passenger" depart="879.17" departLane="best" from="-664327389" to="539755123#1"/>
    <trip id="veh193" type="veh_passenger" depart="883.75" departLane="best" from="644131144#1" to="265150734#1"/>
    <trip id="veh194" type="veh_passenger" depart="888.33" departLane="best" departSpeed="max" from="668815336" to="655000280#1"/>
    <trip id="veh195" type="veh_passenger" depart="892.91" departLane="best" from="646467570#0" to="251582017#1"/>
    <trip id="veh196" type="veh_passenger" depart="897.48" departLane="best" from="251581992#1" to="-643637361#1"/>
    <trip id="veh197" type="veh_passenger" depart="902.06" departLane="best" from="251582062#2" to="482087300"/>
    <trip id="veh198" type="veh_passenger" depart="906.64" departLane="best" from="709141518#1" to="-646950157#1"/>
    <trip id="veh199" type="veh_passenger" depart="911.22" departLane="best" from="251581982" to="646462177#1"/>
    <trip id="veh200" type="veh_passenger" depart="915.80" departLane="best" from="539535924#1" to="251582050"/>
    <trip id="veh202" type="veh_passenger" depart="924.96" departLane="best" from="655225986" to="655234886"/>
    <trip id="veh203" type="veh_passenger" depart="929.54" departLane="best" from="-754521603" to="481622706"/>
    <trip id="veh204" type="veh_passenger" depart="934.12" departLane="best" from="22885696" to="795211464"/>
    <trip id="veh206" type="veh_passenger" depart="943.27" departLane="best" from="251582069#1" to="709567667#0"/>
    <trip id="veh207" type="veh_passenger" depart="947.85" departLane="best" from="482101760#0" to="655796974"/>
    <trip id="veh209" type="veh_passenger" depart="957.01" departLane="best" from="639302656" to="795202552"/>
    <trip id="veh210" type="veh_passenger" depart="961.59" departLane="best" from="723687439#0" to="635725808"/>
    <trip id="veh211" type="veh_passenger" depart="966.17" departLane="best" from="651935224" to="537120339#0"/>
    <trip id="veh212" type="veh_passenger" depart="970.75" departLane="best" from="670467808" to="632803196"/>
    <trip id="veh213" type="veh_passenger" depart="975.33" departLane="best" from="736937268#3" to="649803483#1"/>
    <trip id="veh214" type="veh_passenger" depart="979.91" departLane="best" departSpeed="max" from="533909548" to="251582063#0"/>
    <trip id="veh215" type="veh_passenger" depart="984.49" departLane="best" from="251582064#1" to="639551505"/>
    <trip id="veh216" type="veh_passenger" depart="989.06" departLane="best" from="655532866#1" to="540472414#0"/>
    <trip id="veh217" type="veh_passenger" depart="993.64" departLane="best" from="643643904" to="251582082"/>
    <trip id="veh218" type="veh_passenger" depart="998.22" departLane="best" from="-646788694" to="251582091#1"/>
    <trip id="veh219" type="veh_passenger" depart="1002.80" departLane="best" from="251582091#1" to="251582175#1"/>
    <trip id="veh220" type="veh_passenger" depart="1007.38" departLane="best" from="635250011" to="173896149#2"/>
    <trip id="veh221" type="veh_passenger" depart="1011.96" departLane="best" from="251582050" to="646461503"/>
    <trip id="veh222" type="veh_passenger" depart="1016.54" departLane="best" from="649163300" to="-646758050"/>
    <trip id="veh223" type="veh_passenger" depart="1021.12" departLane="best" from="481632956#1" to="630410466#0"/>
    <trip id="veh224" type="veh_passenger" depart="1025.70" departLane="best" from="481666060" to="251581990"/>
    <trip id="veh225" type="veh_passenger" depart="1030.28" departLane="best" from="482051602" to="74592172#1"/>
    <trip id="veh226" type="veh_passenger" depart="1034.85" departLane="best" from="636835789" to="646462176"/>
    <trip id="veh227" type="veh_passenger" depart="1039.43" departLane="best" from="709536917" to="655225986"/>
    <trip id="veh229" type="veh_passenger" depart="1048.59" departLane="best" from="383249802#0" to="655000280#1"/>
    <trip id="veh230" type="veh_passenger" depart="1053.17" departLane="best" from="709199104" to="795202558"/>
    <trip id="veh231" type="veh_passenger" depart="1057.75" departLane="best" from="481869556#1" to="652568626#0"/>
    <trip id="veh232" type="veh_passenger" depart="1062.33" departLane="best" from="635301958" to="635669709#1"/>
    <trip id="veh233" type="veh_passenger" depart="1066.91" departLane="best" from="251582022#0" to="251582010"/>
    <trip id="veh234" type="veh_passenger" depart="1071.49" departLane="best" from="482057939#1" to="-644170937#0"/>
    <trip id="veh235" type="veh_passenger" depart="1076.07" departLane="best" from="383209584#1" to="645152265"/>
    <trip id="veh238" type="veh_passenger" depart="1089.80" departLane="best" from="642409072#1" to="-644154172"/>
    <trip id="veh239" type="veh_passenger" depart="1094.38" departLane="best" from="481621508#0" to="635294932#0"/>
    <trip id="veh240" type="veh_passenger" depart="1098.96" departLane="best" departSpeed="max" from="-632803196" to="639884003"/>
    <trip id="veh241" type="veh_passenger" depart="1103.54" departLane="best" departSpeed="max" from="173896181" to="482059928"/>
    <trip id="veh242" type="veh_passenger" depart="1108.12" departLane="best" from="-645323421" to="383249808#1"/>
    <trip id="veh244" type="veh_passenger" depart="1117.28" departLane="best" from="655531801" to="383249808#1"/>
    <trip id="veh246" type="veh_passenger" depart="1126.43" departLane="best" from="251582074#1" to="-664066620"/>
    <trip id="veh247" type="veh_passenger" depart="1131.01" departLane="best" departSpeed="max" from="-252391664" to="540472416#1"/>
    <trip id="veh248" type="veh_passenger" depart="1135.59" departLane="best" from="644822502" to="655532865#2"/>
    <trip id="veh251" type="veh_passenger" depart="1149.33" departLane="best" from="-252391668" to="173896227#1"/>
    <trip id="veh252" type="veh_passenger" depart="1153.91" departLane="best" from="173896155" to="644239661#1"/>
    <trip id="veh254" type="veh_passenger" depart="1163.07" departLane="best" from="647087519#0" to="655225986"/>
    <trip id="veh255" type="veh_passenger" depart="1167.65" departLane="best" from="175879018" to="635669709#1"/>
    <trip id="veh256" type="veh_passenger" depart="1172.22" departLane="best" from="655224860#1" to="106857020#1"/>
    <trip id="veh257" type="veh_passenger" depart="1176.80" departLane="best" departSpeed="max" from="668815336" to="796737413"/>
    <trip id="veh258" type="veh_passenger" depart="1181.38" departLane="best" from="-766411788" to="-644154172"/>
    <trip id="veh259" type="veh_passenger" depart="1185.96" departLane="best" from="251582190#0" to="644807219"/>
    <trip id="veh260" type="veh_passenger" depart="1190.54" departLane="best" from="795207462" to="465500905#1"/>
    <trip id="veh261" type="veh_passenger" depart="1195.12" departLane="best" from="649803483#0" to="-664066619"/>
    <trip id="veh262" type="veh_passenger" depart="1199.70" departLane="best" from="646785922" to="637957161"/>
    <trip id="veh263" type="veh_passenger" depart="1204.28" departLane="best" from="709141518#1" to="635669709#1"/>
    <trip id="veh267" type="veh_passenger" depart="1222.59" departLane="best" departSpeed="max" from="540472413" to="383209582"/>
    <trip id="veh268" type="veh_passenger" depart="1227.17" departLane="best" from="709141518#1" to="706845933"/>
    <trip id="veh271" type="veh_passenger" depart="1240.91" departLane="best" from="649167474" to="481651348#0"/>
    <trip id="veh272" type="veh_passenger" depart="1245.49" departLane="best" departSpeed="max" from="655012848#0" to="796737413"/>
    <trip id="veh273" type="veh_passenger" depart="1250.07" departLane="best" from="251582091#0" to="668816528#2"/>
    <trip id="veh274" type="veh_passenger" depart="1254.65" departLane="best" from="634940237" to="482310372"/>
    <trip id="veh275" type="veh_passenger" depart="1259.23" departLane="best" from="482057939#0" to="649161101"/>
    <trip id="veh276" type="veh_passenger" depart="1263.80" departLane="best" from="711227438#0" to="251582050"/>
    <trip id="veh279" type="veh_passenger" depart="1277.54" departLane="best" from="709141518#1" to="22886348#0"/>
    <trip id="veh280" type="veh_passenger" depart="1282.12" departLane="best" from="251582019" to="655784708"/>
    <trip id="veh282" type="veh_passenger" depart="1291.28" departLane="best" from="649139071" to="251582083#1"/>
    <trip id="veh283" type="veh_passenger" depart="1295.86" departLane="best" departSpeed="max" from="-22887337" to="795177010"/>
    <trip id="veh285" type="veh_passenger" depart="1305.02" departLane="best" from="537120339#0" to="655000283#1"/>
    <trip id="veh286" type="veh_passenger" depart="1309.59" departLane="best" from="646785922" to="640010861#1"/>
    <trip id="veh287" type="veh_passenger" depart="1314.17" departLane="best" from="538291733" to="655680115"/>
    <trip id="veh288" type="veh_passenger" depart="1318.75" departLane="best" from="-692688487" to="251582017#0"/>
    <trip id="veh289" type="veh_passenger" depart="1323.33" departLane="best" from="646788694" to="251582120"/>
    <trip id="veh290" type="veh_passenger" depart="1327.91" departLane="best" from="636810404#0" to="482087300"/>
    <trip id="veh291" type="veh_passenger" depart="1332.49" departLane="best" from="633564691" to="481628924"/>
    <trip id="veh292" type="veh_passenger" depart="1337.07" departLane="best" from="655224860#0" to="252391664"/>
    <trip id="veh293" type="veh_passenger" depart="1341.65" departLane="best" from="649161101" to="251582080#0"/>
    <trip id="veh294" type="veh_passenger" depart="1346.23" departLane="best" from="251582072" to="146658738#1"/>
    <trip id="veh295" type="veh_passenger" depart="1350.81" departLane="best" from="251581980" to="146658738#1"/>
    <trip id="veh297" type="veh_passenger" depart="1359.96" departLane="best" from="22886449" to="251582008"/>