<?xml version="1.0" encoding="UTF-8"?>

<!-- generated on 2021-12-20 11:32:24 by Eclipse SUMO netedit Version 1.9.2
<configuration xmlns:xsi="http://www.w3.org/2001/XMLSchema-instance" xsi:noNamespaceSchemaLocation="http://sumo.dlr.de/xsd/netconvertConfiguration.xsd">

    <input>
        <sumo-net-file value="/Users/corinnajiang/flow/flow/Myroute/test.net.xml"/>
    </input>

    <output>
        <output-file value="/Users/corinnajiang/flow/flow/Myroute/test.net.xml"/>
    </output>

    <processing>
        <geometry.min-radius.fix.railways value="false"/>
        <geometry.max-grade.fix value="false"/>
        <offset.disable-normalization value="true"/>
        <lefthand value="false"/>
    </processing>

    <junctions>
        <no-turnarounds value="true"/>
        <junctions.corner-detail value="5"/>
        <junctions.limit-turn-speed value="5.5"/>
        <rectangular-lane-cut value="false"/>
    </junctions>

    <pedestrian>
        <walkingareas value="false"/>
    </pedestrian>

    <netedit>
        <route-files value="/Users/corinnajiang/flow/flow/Myroute/test.rou.xml"/>
    </netedit>

    <report>
        <aggregate-warnings value="5"/>
    </report>

</configuration>
-->

<routes xmlns:xsi="http://www.w3.org/2001/XMLSchema-instance" xsi:noNamespaceSchemaLocation="http://sumo.dlr.de/xsd/routes_file.xsd">
    <vType id="NORMAL" vClass="private" color="yellow"/>
    <vType id="RL" vClass="private" color="red"/>
    <trip id="vehicle_0" type="RL" depart="0.00" from="gneE13" to="gneE19"/>
    <trip id="vehicle_1" type="NORMAL" depart="0.00" from="gneE16" to="gneE19" via="gneE17"/>
    <trip id="vehicle_2" type="NORMAL" depart="0.00" from="gneE16" to="-gneE16" via="gneE17 gneE18 gneE15"/>
    <trip id="vehicle_3" type="NORMAL" depart="0.00" from="gneE17" to="gneE19"/>
    <trip id="vehicle_4" type="NORMAL" depart="0.00" from="-gneE15" to="-gneE14" via="gneE17 gneE18"/>
    <trip id="vehicle_5" type="NORMAL" depart="0.00" from="-gneE17" to="gneE19"/>
    <trip id="vehicle_6" type="NORMAL" depart="0.00" from="gneE18" to="-gneE16" via="gneE15"/>
    <trip id="vehicle_7" type="NORMAL" depart="0.00" from="gneE14" to="-gneE16" via="gneE15"/>
    <trip id="vehicle_8" type="NORMAL" depart="0.00" from="gneE16" to="gneE19"/>
    <trip id="vehicle_9" type="NORMAL" depart="0.00" from="gneE16" to="gneE19"/>
</routes>
