<?xml version="1.0" encoding="UTF-8"?>

<!-- generated on 2022-01-10 10:29:15 by Eclipse SUMO netedit Version 1.9.2
<configuration xmlns:xsi="http://www.w3.org/2001/XMLSchema-instance" xsi:noNamespaceSchemaLocation="http://sumo.dlr.de/xsd/netconvertConfiguration.xsd">

    <input>
        <sumo-net-file value="data/test.net.xml"/>
    </input>

    <output>
        <output-file value="/Users/corinnajiang/Desktop/Desktop%20–%20Corinna’s%20MacBook%20Pro/Master-disseration/Simulation/project%20code/data/test.net.xml"/>
    </output>

    <processing>
        <geometry.min-radius.fix.railways value="false"/>
        <geometry.max-grade.fix value="false"/>
        <offset.disable-normalization value="true"/>
        <lefthand value="false"/>
    </processing>

    <junctions>
        <no-turnarounds value="true"/>
        <junctions.corner-detail value="5"/>
        <junctions.limit-turn-speed value="5.5"/>
        <rectangular-lane-cut value="false"/>
    </junctions>

    <pedestrian>
        <walkingareas value="false"/>
    </pedestrian>

    <report>
        <aggregate-warnings value="5"/>
    </report>

</configuration>
-->

<net version="1.9" junctionCornerDetail="5" limitTurnSpeed="5.50" xmlns:xsi="http://www.w3.org/2001/XMLSchema-instance" xsi:noNamespaceSchemaLocation="http://sumo.dlr.de/xsd/net_file.xsd">

    <location netOffset="0.00,0.00" convBoundary="4.29,-12.16,148.34,109.84" origBoundary="-10000000000.00,-10000000000.00,10000000000.00,10000000000.00" projParameter="!"/>

    <edge id=":gneJ16_0" function="internal">
        <lane id=":gneJ16_0_0" index="0" speed="6.73" length="9.26" shape="46.58,-3.41 46.12,-5.94 45.00,-7.76 43.23,-8.87 40.80,-9.27"/>
    </edge>
    <edge id=":gneJ16_1" function="internal">
        <lane id=":gneJ16_1_0" index="0" speed="7.95" length="14.30" shape="46.58,-3.41 46.95,-7.33 48.49,-10.15 51.21,-11.88 55.09,-12.51"/>
    </edge>
    <edge id=":gneJ16_2" function="internal">
        <lane id=":gneJ16_2_0" index="0" speed="6.45" length="9.03" shape="55.15,-9.31 52.70,-8.91 50.99,-7.82 50.01,-6.04 49.78,-3.56"/>
    </edge>
    <edge id=":gneJ16_3" function="internal">
        <lane id=":gneJ16_3_0" index="0" speed="13.89" length="14.35" shape="55.15,-9.31 40.80,-9.27"/>
    </edge>
    <edge id=":gneJ16_4" function="internal">
        <lane id=":gneJ16_4_0" index="0" speed="13.89" length="14.25" shape="40.85,-12.47 55.09,-12.51"/>
    </edge>
    <edge id=":gneJ16_5" function="internal">
        <lane id=":gneJ16_5_0" index="0" speed="8.19" length="5.67" shape="40.85,-12.47 44.60,-11.87 46.19,-10.88"/>
    </edge>
    <edge id=":gneJ16_6" function="internal">
        <lane id=":gneJ16_6_0" index="0" speed="8.19" length="8.52" shape="46.19,-10.88 47.33,-10.18 49.06,-7.41 49.78,-3.56"/>
    </edge>
    <edge id=":gneJ17_0" function="internal">
        <lane id=":gneJ17_0_0" index="0" speed="9.50" length="23.76" shape="108.85,-13.54 114.40,-12.55 117.87,-9.32 119.26,-3.86 118.56,3.84"/>
    </edge>
    <edge id=":gneJ17_1" function="internal">
        <lane id=":gneJ17_1_0" index="0" speed="7.96" length="11.12" shape="108.85,-13.54 114.53,-12.74 116.74,-10.06 116.24,-8.22"/>
    </edge>
    <edge id=":gneJ17_6" function="internal">
        <lane id=":gneJ17_6_0" index="0" speed="7.96" length="10.81" shape="116.24,-8.22 115.50,-5.49 110.79,0.96"/>
    </edge>
    <edge id=":gneJ17_2" function="internal">
        <lane id=":gneJ17_2_0" index="0" speed="6.27" length="12.99" shape="108.38,-1.14 111.46,-5.22 112.58,-8.12 111.73,-9.82 108.91,-10.34"/>
    </edge>
    <edge id=":gneJ17_3" function="internal">
        <lane id=":gneJ17_3_0" index="0" speed="6.35" length="15.42" shape="108.38,-1.14 111.89,-3.24 115.48,-2.75 118.07,-0.21 118.56,3.84"/>
    </edge>
    <edge id=":gneJ17_4" function="internal">
        <lane id=":gneJ17_4_0" index="0" speed="5.53" length="11.22" shape="115.42,3.22 115.86,-0.60 115.23,-2.25 113.54,-1.73 110.79,0.96"/>
    </edge>
    <edge id=":gneJ17_5" function="internal">
        <lane id=":gneJ17_5_0" index="0" speed="8.29" length="17.79" shape="115.42,3.22 116.03,-2.78 115.15,-7.04 112.78,-9.56 108.91,-10.34"/>
    </edge>
    <edge id=":gneJ18_0" function="internal">
        <lane id=":gneJ18_0_0" index="0" speed="13.89" length="19.24" shape="55.68,72.59 53.18,69.07 51.24,64.25 49.94,59.14 49.37,54.72"/>
    </edge>
    <edge id=":gneJ18_1" function="internal">
        <lane id=":gneJ18_1_0" index="0" speed="9.09" length="7.82" shape="55.68,72.59 53.45,69.38 53.12,65.63 53.18,65.49"/>
    </edge>
    <edge id=":gneJ18_6" function="internal">
        <lane id=":gneJ18_6_0" index="0" speed="9.09" length="10.37" shape="53.18,65.49 54.70,61.34 58.19,56.52"/>
    </edge>
    <edge id=":gneJ18_2" function="internal">
        <lane id=":gneJ18_2_0" index="0" speed="7.82" length="13.20" shape="60.60,58.62 57.87,62.29 56.50,65.45 56.49,68.10 57.85,70.23"/>
    </edge>
    <edge id=":gneJ18_3" function="internal">
        <lane id=":gneJ18_3_0" index="0" speed="7.44" length="19.59" shape="60.60,58.62 55.97,62.88 52.56,63.66 50.36,60.93 49.37,54.72"/>
    </edge>
    <edge id=":gneJ18_4" function="internal">
        <lane id=":gneJ18_4_0" index="0" speed="5.47" length="9.81" shape="52.57,54.56 53.06,57.68 54.16,59.04 55.87,58.65 58.19,56.52"/>
    </edge>
    <edge id=":gneJ18_5" function="internal">
        <lane id=":gneJ18_5_0" index="0" speed="13.57" length="16.86" shape="52.57,54.56 52.98,58.64 53.92,63.00 55.51,67.06 57.85,70.23"/>
    </edge>
    <edge id=":gneJ19_0" function="internal">
        <lane id=":gneJ19_0_0" index="0" speed="13.89" length="17.76" shape="104.06,109.84 99.98,109.10 95.61,107.40 91.48,105.09 88.14,102.55"/>
    </edge>
    <edge id=":gneJ19_1" function="internal">
        <lane id=":gneJ19_1_0" index="0" speed="8.11" length="7.76" shape="104.06,109.84 99.99,108.98 97.40,106.73 97.35,106.57"/>
    </edge>
    <edge id=":gneJ19_6" function="internal">
        <lane id=":gneJ19_6_0" index="0" speed="8.11" length="8.62" shape="97.35,106.57 96.30,103.11 96.68,98.12"/>
    </edge>
    <edge id=":gneJ19_2" function="internal">
        <lane id=":gneJ19_2_0" index="0" speed="6.65" length="10.62" shape="99.82,98.74 99.52,102.12 100.15,104.56 101.70,106.07 104.18,106.64"/>
    </edge>
    <edge id=":gneJ19_3" function="internal">
        <lane id=":gneJ19_3_0" index="0" speed="7.39" length="17.00" shape="99.82,98.74 98.18,103.60 95.68,105.86 92.34,105.51 88.14,102.55"/>
    </edge>
    <edge id=":gneJ19_4" function="internal">
        <lane id=":gneJ19_4_0" index="0" speed="5.64" length="9.27" shape="90.31,100.19 92.60,101.81 94.43,102.00 95.79,100.77 96.68,98.12"/>
    </edge>
    <edge id=":gneJ19_5" function="internal">
        <lane id=":gneJ19_5_0" index="0" speed="13.89" length="15.57" shape="90.31,100.19 93.33,102.61 96.75,104.62 100.42,106.03 104.18,106.64"/>
    </edge>

    <edge id="-gneE13" from="gneJ16" to="gneJ15" priority="-1">
        <lane id="-gneE13_0" index="0" speed="13.89" length="36.54" shape="40.80,-9.27 4.27,-9.78"/>
    </edge>
    <edge id="-gneE14" from="gneJ17" to="gneJ16" priority="-1">
        <lane id="-gneE14_0" index="0" speed="13.89" length="53.77" shape="108.91,-10.34 55.15,-9.31"/>
    </edge>
    <edge id="-gneE15" from="gneJ18" to="gneJ17" priority="-1">
        <lane id="-gneE15_0" index="0" speed="13.89" length="76.45" shape="58.19,56.52 108.38,-1.14"/>
    </edge>
    <edge id="-gneE16" from="gneJ18" to="gneJ16" priority="-1">
        <lane id="-gneE16_0" index="0" speed="13.89" length="58.19" shape="49.37,54.72 46.58,-3.41"/>
    </edge>
    <edge id="-gneE17" from="gneJ19" to="gneJ18" priority="-1">
        <lane id="-gneE17_0" index="0" speed="13.89" length="44.18" shape="88.14,102.55 55.68,72.59"/>
    </edge>
    <edge id="-gneE18" from="gneJ17" to="gneJ19" priority="-1">
        <lane id="-gneE18_0" index="0" speed="13.89" length="96.72" shape="118.56,3.84 99.82,98.74"/>
    </edge>
    <edge id="-gneE19" from="gneJ20" to="gneJ19" priority="-1">
        <lane id="-gneE19_0" index="0" speed="13.89" length="44.25" shape="148.28,111.44 104.06,109.84"/>
    </edge>
    <edge id="gneE13" from="gneJ15" to="gneJ16" priority="-1">
        <lane id="gneE13_0" index="0" speed="13.89" length="36.54" shape="4.31,-12.98 40.85,-12.47"/>
    </edge>
    <edge id="gneE14" from="gneJ16" to="gneJ17" priority="-1">
        <lane id="gneE14_0" index="0" speed="13.89" length="53.77" shape="55.09,-12.51 108.85,-13.54"/>
    </edge>
    <edge id="gneE15" from="gneJ17" to="gneJ18" priority="-1">
        <lane id="gneE15_0" index="0" speed="13.89" length="76.45" shape="110.79,0.96 60.60,58.62"/>
    </edge>
    <edge id="gneE16" from="gneJ16" to="gneJ18" priority="-1">
        <lane id="gneE16_0" index="0" speed="13.89" length="58.19" shape="49.78,-3.56 52.57,54.56"/>
    </edge>
    <edge id="gneE17" from="gneJ18" to="gneJ19" priority="-1">
        <lane id="gneE17_0" index="0" speed="13.89" length="44.18" shape="57.85,70.23 90.31,100.19"/>
    </edge>
    <edge id="gneE18" from="gneJ19" to="gneJ17" priority="-1">
        <lane id="gneE18_0" index="0" speed="13.89" length="96.72" shape="96.68,98.12 115.42,3.22"/>
    </edge>
    <edge id="gneE19" from="gneJ19" to="gneJ20" priority="-1">
        <lane id="gneE19_0" index="0" speed="13.89" length="44.25" shape="104.18,106.64 148.40,108.24"/>
    </edge>

    <junction id="gneJ15" type="dead_end" x="4.29" y="-11.38" incLanes="-gneE13_0" intLanes="" shape="4.29,-11.38 4.25,-8.18 4.29,-11.38"/>
    <junction id="gneJ16" type="priority" x="47.83" y="-10.77" incLanes="-gneE16_0 -gneE14_0 gneE13_0" intLanes=":gneJ16_0_0 :gneJ16_1_0 :gneJ16_2_0 :gneJ16_3_0 :gneJ16_4_0 :gneJ16_6_0" shape="44.98,-3.33 51.38,-3.64 51.71,-5.87 52.23,-6.65 52.98,-7.22 53.97,-7.58 55.18,-7.71 55.06,-14.11 40.87,-14.07 40.78,-7.67 43.02,-7.16 43.83,-6.56 44.42,-5.72 44.81,-4.64">
        <request index="0" response="001000" foes="001000" cont="0"/>
        <request index="1" response="111000" foes="111000" cont="0"/>
        <request index="2" response="000000" foes="100000" cont="0"/>
        <request index="3" response="000000" foes="100011" cont="0"/>
        <request index="4" response="000000" foes="000010" cont="0"/>
        <request index="5" response="001100" foes="001110" cont="1"/>
    </junction>
    <junction id="gneJ17" type="priority" x="120.09" y="-12.16" incLanes="gneE14_0 -gneE15_0 gneE18_0" intLanes=":gneJ17_0_0 :gneJ17_6_0 :gneJ17_2_0 :gneJ17_3_0 :gneJ17_4_0 :gneJ17_5_0" shape="108.82,-15.14 108.94,-8.74 110.52,-8.05 110.50,-7.15 109.93,-5.87 108.82,-4.22 107.17,-2.19 112.00,2.01 113.85,2.91 120.13,4.15 120.89,-1.82 120.59,-6.70 119.24,-10.47 116.82,-13.13 113.35,-14.69">
        <request index="0" response="000000" foes="001000" cont="0"/>
        <request index="1" response="110000" foes="111000" cont="1"/>
        <request index="2" response="100000" foes="100000" cont="0"/>
        <request index="3" response="100011" foes="100011" cont="0"/>
        <request index="4" response="000000" foes="000010" cont="0"/>
        <request index="5" response="000000" foes="001110" cont="0"/>
    </junction>
    <junction id="gneJ18" type="priority" x="51.54" y="66.59" incLanes="-gneE17_0 gneE15_0 gneE16_0" intLanes=":gneJ18_0_0 :gneJ18_6_0 :gneJ18_2_0 :gneJ18_3_0 :gneJ18_4_0 :gneJ18_5_0" shape="54.59,73.76 58.93,69.06 57.95,66.81 58.18,65.35 58.91,63.68 60.11,61.78 61.81,59.67 56.98,55.47 55.50,56.70 54.96,56.73 54.56,56.37 54.29,55.62 54.16,54.49 47.77,54.79 47.93,59.22 48.11,62.67 48.59,65.49 49.64,68.04 51.55,70.68">
        <request index="0" response="000000" foes="001000" cont="0"/>
        <request index="1" response="110000" foes="111000" cont="1"/>
        <request index="2" response="100000" foes="100000" cont="0"/>
        <request index="3" response="100011" foes="100011" cont="0"/>
        <request index="4" response="000000" foes="000010" cont="0"/>
        <request index="5" response="000000" foes="001110" cont="0"/>
    </junction>
    <junction id="gneJ19" type="priority" x="96.37" y="107.96" incLanes="-gneE19_0 -gneE18_0 gneE17_0" intLanes=":gneJ19_0_0 :gneJ19_6_0 :gneJ19_2_0 :gneJ19_3_0 :gneJ19_4_0 :gneJ19_5_0" shape="104.00,111.44 104.23,105.04 102.14,104.31 101.52,103.47 101.19,102.31 101.15,100.84 101.39,99.05 95.11,97.81 94.36,99.69 93.80,100.07 93.12,100.09 92.32,99.74 91.40,99.02 87.06,103.72 90.04,106.46 92.42,108.45 94.61,109.82 97.00,110.69 99.99,111.19">
        <request index="0" response="000000" foes="001000" cont="0"/>
        <request index="1" response="110000" foes="111000" cont="1"/>
        <request index="2" response="100000" foes="100000" cont="0"/>
        <request index="3" response="100011" foes="100011" cont="0"/>
        <request index="4" response="000000" foes="000010" cont="0"/>
        <request index="5" response="000000" foes="001110" cont="0"/>
    </junction>
    <junction id="gneJ20" type="dead_end" x="148.34" y="109.84" incLanes="gneE19_0" intLanes="" shape="148.34,109.84 148.46,106.64 148.34,109.84"/>

    <junction id=":gneJ16_6_0" type="internal" x="46.19" y="-10.88" incLanes=":gneJ16_5_0 -gneE14_0" intLanes=":gneJ16_1_0 :gneJ16_2_0 :gneJ16_3_0"/>
    <junction id=":gneJ17_6_0" type="internal" x="116.24" y="-8.22" incLanes=":gneJ17_1_0 gneE18_0" intLanes=":gneJ17_3_0 :gneJ17_4_0 :gneJ17_5_0"/>
    <junction id=":gneJ18_6_0" type="internal" x="53.18" y="65.49" incLanes=":gneJ18_1_0 gneE16_0" intLanes=":gneJ18_3_0 :gneJ18_4_0 :gneJ18_5_0"/>
    <junction id=":gneJ19_6_0" type="internal" x="97.35" y="106.57" incLanes=":gneJ19_1_0 gneE17_0" intLanes=":gneJ19_3_0 :gneJ19_4_0 :gneJ19_5_0"/>

    <connection from="-gneE14" to="gneE16" fromLane="0" toLane="0" via=":gneJ16_2_0" dir="r" state="M"/>
    <connection from="-gneE14" to="-gneE13" fromLane="0" toLane="0" via=":gneJ16_3_0" dir="s" state="M"/>
    <connection from="-gneE15" to="-gneE14" fromLane="0" toLane="0" via=":gneJ17_2_0" dir="r" state="m"/>
    <connection from="-gneE15" to="-gneE18" fromLane="0" toLane="0" via=":gneJ17_3_0" dir="l" state="m"/>
    <connection from="-gneE16" to="-gneE13" fromLane="0" toLane="0" via=":gneJ16_0_0" dir="r" state="m"/>
    <connection from="-gneE16" to="gneE14" fromLane="0" toLane="0" via=":gneJ16_1_0" dir="l" state="m"/>
    <connection from="-gneE17" to="-gneE16" fromLane="0" toLane="0" via=":gneJ18_0_0" dir="L" state="M"/>
    <connection from="-gneE17" to="-gneE15" fromLane="0" toLane="0" via=":gneJ18_1_0" dir="l" state="m"/>
    <connection from="-gneE18" to="gneE19" fromLane="0" toLane="0" via=":gneJ19_2_0" dir="r" state="m"/>
    <connection from="-gneE18" to="-gneE17" fromLane="0" toLane="0" via=":gneJ19_3_0" dir="l" state="m"/>
    <connection from="-gneE19" to="-gneE17" fromLane="0" toLane="0" via=":gneJ19_0_0" dir="s" state="M"/>
    <connection from="-gneE19" to="gneE18" fromLane="0" toLane="0" via=":gneJ19_1_0" dir="l" state="m"/>
    <connection from="gneE13" to="gneE14" fromLane="0" toLane="0" via=":gneJ16_4_0" dir="s" state="M"/>
    <connection from="gneE13" to="gneE16" fromLane="0" toLane="0" via=":gneJ16_5_0" dir="l" state="m"/>
    <connection from="gneE14" to="-gneE18" fromLane="0" toLane="0" via=":gneJ17_0_0" dir="l" state="M"/>
    <connection from="gneE14" to="gneE15" fromLane="0" toLane="0" via=":gneJ17_1_0" dir="l" state="m"/>
    <connection from="gneE15" to="gneE17" fromLane="0" toLane="0" via=":gneJ18_2_0" dir="r" state="m"/>
    <connection from="gneE15" to="-gneE16" fromLane="0" toLane="0" via=":gneJ18_3_0" dir="l" state="m"/>
    <connection from="gneE16" to="-gneE15" fromLane="0" toLane="0" via=":gneJ18_4_0" dir="r" state="M"/>
    <connection from="gneE16" to="gneE17" fromLane="0" toLane="0" via=":gneJ18_5_0" dir="R" state="M"/>
    <connection from="gneE17" to="gneE18" fromLane="0" toLane="0" via=":gneJ19_4_0" dir="r" state="M"/>
    <connection from="gneE17" to="gneE19" fromLane="0" toLane="0" via=":gneJ19_5_0" dir="s" state="M"/>
    <connection from="gneE18" to="gneE15" fromLane="0" toLane="0" via=":gneJ17_4_0" dir="r" state="M"/>
    <connection from="gneE18" to="-gneE14" fromLane="0" toLane="0" via=":gneJ17_5_0" dir="r" state="M"/>

    <connection from=":gneJ16_0" to="-gneE13" fromLane="0" toLane="0" dir="r" state="M"/>
    <connection from=":gneJ16_1" to="gneE14" fromLane="0" toLane="0" dir="l" state="M"/>
    <connection from=":gneJ16_2" to="gneE16" fromLane="0" toLane="0" dir="r" state="M"/>
    <connection from=":gneJ16_3" to="-gneE13" fromLane="0" toLane="0" dir="s" state="M"/>
    <connection from=":gneJ16_4" to="gneE14" fromLane="0" toLane="0" dir="s" state="M"/>
    <connection from=":gneJ16_5" to="gneE16" fromLane="0" toLane="0" via=":gneJ16_6_0" dir="l" state="m"/>
    <connection from=":gneJ16_6" to="gneE16" fromLane="0" toLane="0" dir="l" state="M"/>
    <connection from=":gneJ17_0" to="-gneE18" fromLane="0" toLane="0" dir="l" state="M"/>
    <connection from=":gneJ17_1" to="gneE15" fromLane="0" toLane="0" via=":gneJ17_6_0" dir="l" state="m"/>
    <connection from=":gneJ17_6" to="gneE15" fromLane="0" toLane="0" dir="l" state="M"/>
    <connection from=":gneJ17_2" to="-gneE14" fromLane="0" toLane="0" dir="r" state="M"/>
    <connection from=":gneJ17_3" to="-gneE18" fromLane="0" toLane="0" dir="l" state="M"/>
    <connection from=":gneJ17_4" to="gneE15" fromLane="0" toLane="0" dir="r" state="M"/>
    <connection from=":gneJ17_5" to="-gneE14" fromLane="0" toLane="0" dir="r" state="M"/>
    <connection from=":gneJ18_0" to="-gneE16" fromLane="0" toLane="0" dir="L" state="M"/>
    <connection from=":gneJ18_1" to="-gneE15" fromLane="0" toLane="0" via=":gneJ18_6_0" dir="l" state="m"/>
    <connection from=":gneJ18_6" to="-gneE15" fromLane="0" toLane="0" dir="l" state="M"/>
    <connection from=":gneJ18_2" to="gneE17" fromLane="0" toLane="0" dir="r" state="M"/>
    <connection from=":gneJ18_3" to="-gneE16" fromLane="0" toLane="0" dir="l" state="M"/>
    <connection from=":gneJ18_4" to="-gneE15" fromLane="0" toLane="0" dir="r" state="M"/>
    <connection from=":gneJ18_5" to="gneE17" fromLane="0" toLane="0" dir="R" state="M"/>
    <connection from=":gneJ19_0" to="-gneE17" fromLane="0" toLane="0" dir="s" state="M"/>
    <connection from=":gneJ19_1" to="gneE18" fromLane="0" toLane="0" via=":gneJ19_6_0" dir="l" state="m"/>
    <connection from=":gneJ19_6" to="gneE18" fromLane="0" toLane="0" dir="l" state="M"/>
    <connection from=":gneJ19_2" to="gneE19" fromLane="0" toLane="0" dir="r" state="M"/>
    <connection from=":gneJ19_3" to="-gneE17" fromLane="0" toLane="0" dir="l" state="M"/>
    <connection from=":gneJ19_4" to="gneE18" fromLane="0" toLane="0" dir="r" state="M"/>
    <connection from=":gneJ19_5" to="gneE19" fromLane="0" toLane="0" dir="s" state="M"/>

</net>
